
     RDKit          2D

 58 61  0  0  0  0  0  0  0  0999 V2000
    1.4289    1.8562    0.0000 C   0  0  0  0  0  0  0  0  0  0  0  0
    0.0000   -3.0937    0.0000 C   0  0  0  0  0  0  0  0  0  0  0  0
   -4.2868    0.2062    0.0000 C   0  0  0  0  0  0  0  0  0  0  0  0
    0.0000   -0.6187    0.0000 C   0  0  0  0  0  0  0  0  0  0  0  0
   -2.8578   -0.6187    0.0000 C   0  0  0  0  0  0  0  0  0  0  0  0
   -1.7644    0.9599    0.0000 C   0  0  0  0  0  0  0  0  0  0  0  0
   -3.5723    2.2687    0.0000 C   0  0  0  0  0  0  0  0  0  0  0  0
   -1.9592   -2.9007    0.0000 C   0  0  0  0  0  0  0  0  0  0  0  0
   -0.6164    1.7129    0.0000 C   0  0  0  0  0  0  0  0  0  0  0  0
    2.2414    0.0629    0.0000 C   0  0  0  0  0  0  0  0  0  0  0  0
   -5.7157   -3.0937    0.0000 C   0  0  0  0  0  0  0  0  0  0  0  0
   -6.4302   -1.8562    0.0000 C   0  0  0  0  0  0  0  0  0  0  0  0
    6.4302   -1.8562    0.0000 C   0  0  0  0  0  0  0  0  0  0  0  0
   -0.3343    2.7747    0.0000 C   0  0  0  0  0  0  0  0  0  0  0  0
    0.7144    1.4437    0.0000 C   0  0  0  0  0  0  0  0  0  0  0  0
    5.0012   -1.8562    0.0000 C   0  0  0  0  0  0  0  0  0  0  0  0
    4.2868   -2.2687    0.0000 C   0  0  0  0  0  0  0  0  0  0  0  0
   -5.0012   -1.0312    0.0000 C   0  0  0  0  0  0  0  0  0  0  0  0
   -0.7144   -1.8562    0.0000 C   0  0  0  0  0  0  0  0  0  0  0  0
   -1.4289    1.0312    0.0000 C   0  0  0  0  0  0  0  0  0  0  0  0
    2.8578   -2.2687    0.0000 C   0  0  0  0  0  0  0  0  0  0  0  0
    0.0000   -2.2687    0.0000 C   0  0  0  0  0  0  0  0  0  0  0  0
   -4.2868   -0.6187    0.0000 C   0  0  0  0  0  0  0  0  0  0  0  0
    0.7144   -1.0312    0.0000 C   0  0  0  0  0  0  0  0  0  0  0  0
   -2.1434   -1.0312    0.0000 C   0  0  0  0  0  0  0  0  0  0  0  0
   -1.4289    0.2062    0.0000 C   0  0  0  0  0  0  0  0  0  0  0  0
   -2.8578    1.8562    0.0000 C   0  0  0  0  0  0  0  0  0  0  0  0
   -5.0012   -1.8562    0.0000 C   0  0  0  0  0  0  0  0  0  0  0  0
    0.7144    0.6187    0.0000 C   0  0  0  0  0  0  0  0  0  0  0  0
    2.1434   -1.8562    0.0000 C   0  0  0  0  0  0  0  0  0  0  0  0
   -2.1434    0.6187    0.0000 C   0  0  0  0  0  0  0  0  0  0  0  0
    0.7144   -1.8562    0.0000 C   0  0  0  0  0  0  0  0  0  0  0  0
   -4.2868   -2.2687    0.0000 C   0  0  0  0  0  0  0  0  0  0  0  0
   -1.4289   -0.6187    0.0000 C   0  0  0  0  0  0  0  0  0  0  0  0
   -2.1434    2.2687    0.0000 C   0  0  0  0  0  0  0  0  0  0  0  0
   -2.1434   -1.8562    0.0000 C   0  0  0  0  0  0  0  0  0  0  0  0
    1.4289   -0.6187    0.0000 C   0  0  0  0  0  0  0  0  0  0  0  0
   -0.7144    0.6187    0.0000 C   0  0  0  0  0  0  0  0  0  0  0  0
   -3.5723   -1.8562    0.0000 C   0  0  0  0  0  0  0  0  0  0  0  0
   -1.4289   -2.2687    0.0000 C   0  0  0  0  0  0  0  0  0  0  0  0
   -1.4289    1.8562    0.0000 C   0  0  0  0  0  0  0  0  0  0  0  0
    1.4289    0.2062    0.0000 C   0  0  0  0  0  0  0  0  0  0  0  0
    1.4289   -2.2687    0.0000 N   0  0  0  0  0  0  0  0  0  0  0  0
   -5.7157   -2.2687    0.0000 N   0  0  0  0  0  0  0  0  0  0  0  0
   -4.2868   -3.0937    0.0000 O   0  0  0  0  0  0  0  0  0  0  0  0
   -2.1434    3.0937    0.0000 O   0  0  0  0  0  0  0  0  0  0  0  0
   -0.7144    1.4437    0.0000 O   0  0  0  0  0  0  0  0  0  0  0  0
   -0.8986   -2.9007    0.0000 O   0  0  0  0  0  0  0  0  0  0  0  0
    1.7111    0.9814    0.0000 O   0  0  0  0  0  0  0  0  0  0  0  0
    5.7157   -2.2687    0.0000 O   0  0  0  0  0  0  0  0  0  0  0  0
   -1.1467    2.6314    0.0000 O   0  0  0  0  0  0  0  0  0  0  0  0
    3.5723   -1.8562    0.0000 O   0  0  0  0  0  0  0  0  0  0  0  0
   -3.5723   -1.0312    0.0000 O   0  0  0  0  0  0  0  0  0  0  0  0
   -2.8578    1.0312    0.0000 O   0  0  0  0  0  0  0  0  0  0  0  0
    0.0000    0.2062    0.0000 O   0  0  0  0  0  0  0  0  0  0  0  0
    2.1434   -1.0312    0.0000 O   0  0  0  0  0  0  0  0  0  0  0  0
   -2.1434   -0.2062    0.0000 O   0  0  0  0  0  0  0  0  0  0  0  0
   -2.8578   -2.2687    0.0000 O   0  0  0  0  0  0  0  0  0  0  0  0
 15  1  1  0
 17 16  1  0
 22  2  1  6
 22 19  1  0
 23  3  1  1
 23 18  1  0
 24  4  1  6
 25  5  1  1
 26  6  1  1
 27  7  1  1
 28 18  1  0
 29 15  1  6
 30 21  1  6
 31 20  1  0
 32 22  1  0
 32 24  1  0
 33 28  1  0
 34 25  1  0
 34 26  1  0
 35 27  1  0
 36 25  1  0
 37 24  1  0
 38 26  1  0
 39 33  1  0
 40  8  1  6
 40 19  1  0
 40 36  1  0
 41  9  1  1
 41 20  1  0
 41 35  1  0
 42 10  1  6
 42 29  1  0
 42 37  1  0
 43 30  1  0
 32 43  1  1
 44 11  1  0
 44 12  1  0
 28 44  1  1
 33 45  1  6
 35 46  1  6
 47 38  2  0
 40 48  1  0
 42 49  1  0
 50 13  1  0
 50 16  1  0
 51 14  1  0
 41 51  1  0
 52 17  1  0
 52 21  1  0
 53 23  1  0
 53 39  1  0
 54 27  1  0
 54 31  1  0
 55 29  1  0
 55 38  1  0
 56 30  1  0
 37 56  1  6
 31 57  1  6
 34 57  1  1
 36 58  1  6
 39 58  1  1
M  END
$$$$
