428
     RDKit          2D

 18 18  0  0  1  0  0  0  0  0999 V2000
    4.2365   -1.1880    0.0000 O   0  0  0  0  0  0  0  0  0  0  0  0
    2.0930    0.0495    0.0000 O   0  0  0  0  0  0  0  0  0  0  0  0
    2.0930   -1.6005    0.0000 O   0  0  0  0  0  0  0  0  0  0  0  0
    4.9509    0.0495    0.0000 O   0  0  0  0  0  0  0  0  0  0  0  0
    4.2365   -2.8381    0.0000 O   0  0  0  0  0  0  0  0  0  0  0  0
    4.9509    0.8745    0.0000 O   0  0  0  0  0  0  0  0  0  0  0  0
    4.9509    3.3496    0.0000 O   0  0  0  0  0  0  0  0  0  0  0  0
    3.5220    0.8745    0.0000 N   0  0  0  0  0  0  0  0  0  0  0  0
    4.2365    2.1120    0.0000 N   0  0  0  0  0  0  0  0  0  0  0  0
    4.9509    2.5246    0.0000 N   0  0  0  0  0  0  0  0  0  0  0  0
    2.8075   -0.3630    0.0000 C   0  0  0  0  0  0  0  0  0  0  0  0
    3.5220    0.0495    0.0000 C   0  0  0  0  0  0  0  0  0  0  0  0
    2.8075   -1.1880    0.0000 C   0  0  0  0  0  0  0  0  0  0  0  0
    3.5220   -1.6005    0.0000 C   0  0  0  0  0  0  0  0  0  0  0  0
    4.2365   -0.3630    0.0000 C   0  0  0  0  0  0  0  0  0  0  0  0
    3.5220   -2.4256    0.0000 C   0  0  0  0  0  0  0  0  0  0  0  0
    4.2365    1.2870    0.0000 C   0  0  0  0  0  0  0  0  0  0  0  0
    3.5220    2.5246    0.0000 C   0  0  0  0  0  0  0  0  0  0  0  0
  1 14  1  0
  1 15  1  0
 11  2  1  6
 13  3  1  1
 15  4  1  1
  5 16  1  0
  6 17  2  0
  7 10  2  0
 12  8  1  1
  8 17  1  0
  9 10  1  0
  9 17  1  0
  9 18  1  0
 11 12  1  0
 11 13  1  0
 12 15  1  0
 13 14  1  0
 14 16  1  6
M  END
$$$$
