586
     RDKit          2D

 19 20  0  0  0  0  0  0  0  0999 V2000
    4.5080   -1.2870    0.0000 Cl  0  0  0  0  0  0  0  0  0  0  0  0
    1.6500   -1.2870    0.0000 Cl  0  0  0  0  0  0  0  0  0  0  0  0
    2.3645    2.4256    0.0000 O   0  0  0  0  0  0  0  0  0  0  0  0
    3.7935    2.4256    0.0000 O   0  0  0  0  0  0  0  0  0  0  0  0
    3.0791   -0.4620    0.0000 N   0  0  0  0  0  0  0  0  0  0  0  0
    3.7935    0.7755    0.0000 C   0  0  0  0  0  0  0  0  0  0  0  0
    3.7935   -0.0495    0.0000 C   0  0  0  0  0  0  0  0  0  0  0  0
    3.0791    1.1880    0.0000 C   0  0  0  0  0  0  0  0  0  0  0  0
    3.0791   -1.2870    0.0000 C   0  0  0  0  0  0  0  0  0  0  0  0
    4.5080    1.1880    0.0000 C   0  0  0  0  0  0  0  0  0  0  0  0
    4.5080   -0.4620    0.0000 C   0  0  0  0  0  0  0  0  0  0  0  0
    5.2224    0.7755    0.0000 C   0  0  0  0  0  0  0  0  0  0  0  0
    5.2224   -0.0495    0.0000 C   0  0  0  0  0  0  0  0  0  0  0  0
    3.7935   -1.6995    0.0000 C   0  0  0  0  0  0  0  0  0  0  0  0
    2.3645   -1.6995    0.0000 C   0  0  0  0  0  0  0  0  0  0  0  0
    3.0791    2.0130    0.0000 C   0  0  0  0  0  0  0  0  0  0  0  0
    3.7935   -2.5246    0.0000 C   0  0  0  0  0  0  0  0  0  0  0  0
    2.3645   -2.5246    0.0000 C   0  0  0  0  0  0  0  0  0  0  0  0
    3.0791   -2.9371    0.0000 C   0  0  0  0  0  0  0  0  0  0  0  0
  1 14  1  0
  2 15  1  0
  3 16  1  0
  4 16  2  0
  5  7  1  0
  5  9  1  0
  6  7  2  0
  6  8  1  0
  6 10  1  0
  7 11  1  0
  8 16  1  0
  9 14  2  0
  9 15  1  0
 10 12  2  0
 11 13  2  0
 12 13  1  0
 14 17  1  0
 15 18  2  0
 17 19  2  0
 18 19  1  0
M  END
$$$$
