693
     RDKit          2D

 25 29  0  0  0  0  0  0  0  0999 V2000
    4.1660   -0.4052    0.0000 O   0  0  0  0  0  0  0  0  0  0  0  0
    4.8068    1.6446    0.0000 O   0  0  0  0  0  0  0  0  0  0  0  0
    3.9452   -1.7994    0.0000 O   0  0  0  0  0  0  0  0  0  0  0  0
    2.0104    1.6637    0.0000 O   0  0  0  0  0  0  0  0  0  0  0  0
    7.6032    1.6637    0.0000 O   0  0  0  0  0  0  0  0  0  0  0  0
    4.8068    0.0604    0.0000 C   0  0  0  0  0  0  0  0  0  0  0  0
    5.4477   -0.4052    0.0000 C   0  0  0  0  0  0  0  0  0  0  0  0
    4.1207    0.4565    0.0000 C   0  0  0  0  0  0  0  0  0  0  0  0
    5.4928    0.4565    0.0000 C   0  0  0  0  0  0  0  0  0  0  0  0
    5.2029   -1.1587    0.0000 C   0  0  0  0  0  0  0  0  0  0  0  0
    4.1207    1.2485    0.0000 C   0  0  0  0  0  0  0  0  0  0  0  0
    5.4928    1.2485    0.0000 C   0  0  0  0  0  0  0  0  0  0  0  0
    4.4108   -1.1587    0.0000 C   0  0  0  0  0  0  0  0  0  0  0  0
    6.2362   -0.6481    0.0000 C   0  0  0  0  0  0  0  0  0  0  0  0
    3.4127    0.0329    0.0000 C   0  0  0  0  0  0  0  0  0  0  0  0
    6.2009    0.0329    0.0000 C   0  0  0  0  0  0  0  0  0  0  0  0
    5.3619   -1.9682    0.0000 C   0  0  0  0  0  0  0  0  0  0  0  0
    3.4127    1.6720    0.0000 C   0  0  0  0  0  0  0  0  0  0  0  0
    6.2009    1.6720    0.0000 C   0  0  0  0  0  0  0  0  0  0  0  0
    6.5286   -1.5283    0.0000 C   0  0  0  0  0  0  0  0  0  0  0  0
    2.6950    0.4399    0.0000 C   0  0  0  0  0  0  0  0  0  0  0  0
    6.9186    0.4399    0.0000 C   0  0  0  0  0  0  0  0  0  0  0  0
    6.0301   -2.1549    0.0000 C   0  0  0  0  0  0  0  0  0  0  0  0
    2.6950    1.2650    0.0000 C   0  0  0  0  0  0  0  0  0  0  0  0
    6.9186    1.2650    0.0000 C   0  0  0  0  0  0  0  0  0  0  0  0
  1  6  1  0
  1 13  1  0
  2 11  1  0
  2 12  1  0
  3 13  2  0
  4 24  1  0
  5 25  1  0
  6  7  1  0
  6  8  1  0
  6  9  1  0
  7 10  2  0
  7 14  1  0
  8 11  2  0
  8 15  1  0
  9 12  2  0
  9 16  1  0
 10 13  1  0
 10 17  1  0
 11 18  1  0
 12 19  1  0
 14 20  2  0
 15 21  2  0
 16 22  2  0
 17 23  2  0
 18 24  2  0
 19 25  2  0
 20 23  1  0
 21 24  1  0
 22 25  1  0
M  END
$$$$
