879
     RDKit          2D

 16 17  0  0  1  0  0  0  0  0999 V2000
    2.6665   -1.4952    0.0000 S   0  0  0  0  0  0  0  0  0  0  0  0
    4.5080    2.2494    0.0000 F   0  0  0  0  0  0  0  0  0  0  0  0
    3.7465   -0.7106    0.0000 O   0  0  0  0  0  0  0  0  0  0  0  0
    3.6409   -2.9164    0.0000 O   0  0  0  0  0  0  0  0  0  0  0  0
    1.6500    0.5994    0.0000 O   0  0  0  0  0  0  0  0  0  0  0  0
    3.0791    0.5994    0.0000 N   0  0  0  0  0  0  0  0  0  0  0  0
    2.3645    1.8369    0.0000 N   0  0  0  0  0  0  0  0  0  0  0  0
    3.0791    3.0744    0.0000 N   0  0  0  0  0  0  0  0  0  0  0  0
    3.0791   -0.2256    0.0000 C   0  0  0  0  0  0  0  0  0  0  0  0
    2.4115   -0.7106    0.0000 C   0  0  0  0  0  0  0  0  0  0  0  0
    3.4916   -1.4952    0.0000 C   0  0  0  0  0  0  0  0  0  0  0  0
    3.9764   -2.1627    0.0000 C   0  0  0  0  0  0  0  0  0  0  0  0
    3.7935    1.0119    0.0000 C   0  0  0  0  0  0  0  0  0  0  0  0
    2.3645    1.0119    0.0000 C   0  0  0  0  0  0  0  0  0  0  0  0
    3.7935    1.8369    0.0000 C   0  0  0  0  0  0  0  0  0  0  0  0
    3.0791    2.2494    0.0000 C   0  0  0  0  0  0  0  0  0  0  0  0
  1 10  1  0
  1 11  1  0
  2 15  1  0
  3  9  1  0
  3 11  1  0
  4 12  1  0
  5 14  2  0
  9  6  1  1
  6 13  1  0
  6 14  1  0
  7 14  1  0
  7 16  2  0
  8 16  1  0
  9 10  1  0
 11 12  1  1
 13 15  2  0
 15 16  1  0
M  END
$$$$
