668
     RDKit          2D

 13 13  0  0  1  0  0  0  0  0999 V2000
    2.8075    1.3654    0.0000 O   0  0  0  0  0  0  0  0  0  0  0  0
    2.0930   -1.5222    0.0000 O   0  0  0  0  0  0  0  0  0  0  0  0
    3.5220   -2.3472    0.0000 O   0  0  0  0  0  0  0  0  0  0  0  0
    4.2365    2.1904    0.0000 N   0  0  0  0  0  0  0  0  0  0  0  0
    3.5220    0.9529    0.0000 C   0  0  0  0  0  0  0  0  0  0  0  0
    3.5220    0.1279    0.0000 C   0  0  0  0  0  0  0  0  0  0  0  0
    4.2365    1.3654    0.0000 C   0  0  0  0  0  0  0  0  0  0  0  0
    2.8075   -0.2846    0.0000 C   0  0  0  0  0  0  0  0  0  0  0  0
    4.2365   -0.2846    0.0000 C   0  0  0  0  0  0  0  0  0  0  0  0
    2.8075   -1.1096    0.0000 C   0  0  0  0  0  0  0  0  0  0  0  0
    4.2365   -1.1096    0.0000 C   0  0  0  0  0  0  0  0  0  0  0  0
    3.5220   -1.5222    0.0000 C   0  0  0  0  0  0  0  0  0  0  0  0
    4.9509    2.6029    0.0000 C   0  0  0  0  0  0  0  0  0  0  0  0
  5  1  1  1
  2 10  1  0
  3 12  1  0
  4  7  1  0
  4 13  1  0
  5  6  1  0
  5  7  1  0
  6  8  2  0
  6  9  1  0
  8 10  1  0
  9 11  2  0
 10 12  2  0
 11 12  1  0
M  END
$$$$
