
     RDKit          2D

 26 28  0  0  0  0  0  0  0  0999 V2000
   -1.4324   -1.2704    0.0000 C   0  0  0  0  0  0  0  0  0  0  0  0
   -1.4324   -2.0925    0.0000 C   0  0  0  0  0  0  0  0  0  0  0  0
   -2.1548   -0.8469    0.0000 C   0  0  0  0  0  0  0  0  0  0  0  0
   -2.1548   -2.4911    0.0000 C   0  0  0  0  0  0  0  0  0  0  0  0
   -2.8522   -1.2704    0.0000 C   0  0  0  0  0  0  0  0  0  0  0  0
   -2.8522   -2.0925    0.0000 C   0  0  0  0  0  0  0  0  0  0  0  0
   -3.5747   -2.4911    0.0000 Cl  0  0  0  0  0  0  0  0  0  0  0  0
   -2.1548   -0.0249    0.0000 Cl  0  0  0  0  0  0  0  0  0  0  0  0
   -0.7099   -0.8469    0.0000 C   0  0  0  0  0  0  0  0  0  0  0  0
   -0.0124   -1.2454    0.0000 O   0  0  0  0  0  0  0  0  0  0  0  0
    0.7099   -0.8469    0.0000 N   0  0  0  0  0  0  0  0  0  0  0  0
    0.7099   -0.0249    0.0000 C   0  0  0  0  0  0  0  0  0  0  0  0
    1.4324    0.3737    0.0000 C   0  0  0  0  0  0  0  0  0  0  0  0
    0.0124    0.3986    0.0000 C   0  0  0  0  0  0  0  0  0  0  0  0
    0.0124    1.2206    0.0000 N   0  0  0  0  0  0  0  0  0  0  0  0
   -0.6601    1.6940    0.0000 C   0  0  0  0  0  0  0  0  0  0  0  0
   -0.4110    2.4911    0.0000 N   0  0  0  0  0  0  0  0  0  0  0  0
    0.6601    1.6940    0.0000 C   0  0  0  0  0  0  0  0  0  0  0  0
    0.4110    2.4911    0.0000 C   0  0  0  0  0  0  0  0  0  0  0  0
    2.8522    1.2206    0.0000 C   0  0  0  0  0  0  0  0  0  0  0  0
    2.8522    0.3737    0.0000 C   0  0  0  0  0  0  0  0  0  0  0  0
    2.1548    1.6191    0.0000 C   0  0  0  0  0  0  0  0  0  0  0  0
    2.1548   -0.0249    0.0000 C   0  0  0  0  0  0  0  0  0  0  0  0
    1.4324    1.2206    0.0000 C   0  0  0  0  0  0  0  0  0  0  0  0
    3.5747    1.6191    0.0000 Cl  0  0  0  0  0  0  0  0  0  0  0  0
    2.1548   -0.8469    0.0000 Cl  0  0  0  0  0  0  0  0  0  0  0  0
  2  1  2  0
  3  1  1  0
  9  1  1  0
  4  2  1  0
  5  3  2  0
  8  3  1  0
  6  4  2  0
  6  5  1  0
  7  6  1  0
 10  9  1  0
 11 10  1  0
 12 11  2  0
 13 12  1  0
 14 12  1  0
 23 13  2  0
 24 13  1  0
 15 14  1  0
 16 15  1  0
 18 15  1  0
 17 16  2  0
 19 17  1  0
 19 18  2  0
 21 20  2  0
 22 20  1  0
 25 20  1  0
 23 21  1  0
 24 22  2  0
 26 23  1  0
M  END
$$$$
