186
     RDKit          2D

 21 23  0  0  1  0  0  0  0  0999 V2000
    2.5467   -2.3783    0.0000 Cl  0  0  0  0  0  0  0  0  0  0  0  0
    3.6080   -1.4841    0.0000 Cl  0  0  0  0  0  0  0  0  0  0  0  0
    3.8811    2.3401    0.0000 O   0  0  0  0  0  0  0  0  0  0  0  0
    2.3403    2.3401    0.0000 O   0  0  0  0  0  0  0  0  0  0  0  0
    2.1838    0.9518    0.0000 N   0  0  0  0  0  0  0  0  0  0  0  0
    4.0375    0.9518    0.0000 N   0  0  0  0  0  0  0  0  0  0  0  0
    3.1106   -0.2105    0.0000 C   0  0  0  0  0  0  0  0  0  0  0  0
    3.8540    0.1475    0.0000 C   0  0  0  0  0  0  0  0  0  0  0  0
    2.3674    0.1475    0.0000 C   0  0  0  0  0  0  0  0  0  0  0  0
    4.4989   -0.3669    0.0000 C   0  0  0  0  0  0  0  0  0  0  0  0
    3.5231    1.5968    0.0000 C   0  0  0  0  0  0  0  0  0  0  0  0
    3.1881   -1.0663    0.0000 C   0  0  0  0  0  0  0  0  0  0  0  0
    2.6981    1.5968    0.0000 C   0  0  0  0  0  0  0  0  0  0  0  0
    1.6500   -0.3256    0.0000 C   0  0  0  0  0  0  0  0  0  0  0  0
    2.4818   -1.5559    0.0000 C   0  0  0  0  0  0  0  0  0  0  0  0
    1.7076   -1.1830    0.0000 C   0  0  0  0  0  0  0  0  0  0  0  0
    4.3760   -1.1827    0.0000 C   0  0  0  0  0  0  0  0  0  0  0  0
    5.2669   -0.0655    0.0000 C   0  0  0  0  0  0  0  0  0  0  0  0
    5.0210   -1.6971    0.0000 C   0  0  0  0  0  0  0  0  0  0  0  0
    5.9120   -0.5799    0.0000 C   0  0  0  0  0  0  0  0  0  0  0  0
    5.7890   -1.3956    0.0000 C   0  0  0  0  0  0  0  0  0  0  0  0
  1 15  1  0
  2 17  1  0
  3 11  1  0
  4 13  2  0
  5  9  1  0
  5 13  1  0
  6  8  2  0
  6 11  1  0
  7  8  1  0
  7  9  2  0
  7 12  1  0
  8 10  1  0
  9 14  1  0
 10 17  2  0
 10 18  1  0
 11 13  1  0
 12 15  2  0
 14 16  2  0
 15 16  1  0
 17 19  1  0
 18 20  2  0
 19 21  2  0
 20 21  1  0
M  END
$$$$
