816
     RDKit          2D

 15 15  0  0  1  0  0  0  0  0999 V2000
    2.3645    0.6683    0.0000 O   0  0  0  0  0  0  0  0  0  0  0  0
    1.6500   -2.2193    0.0000 O   0  0  0  0  0  0  0  0  0  0  0  0
    4.5080   -2.2193    0.0000 O   0  0  0  0  0  0  0  0  0  0  0  0
    3.7935    1.4933    0.0000 N   0  0  0  0  0  0  0  0  0  0  0  0
    3.0791    0.2558    0.0000 C   0  0  0  0  0  0  0  0  0  0  0  0
    3.7935    0.6683    0.0000 C   0  0  0  0  0  0  0  0  0  0  0  0
    4.5080    1.9058    0.0000 C   0  0  0  0  0  0  0  0  0  0  0  0
    3.0791   -0.5693    0.0000 C   0  0  0  0  0  0  0  0  0  0  0  0
    4.5080    2.7308    0.0000 C   0  0  0  0  0  0  0  0  0  0  0  0
    5.2224    1.4933    0.0000 C   0  0  0  0  0  0  0  0  0  0  0  0
    3.7935   -0.9818    0.0000 C   0  0  0  0  0  0  0  0  0  0  0  0
    2.3645   -0.9818    0.0000 C   0  0  0  0  0  0  0  0  0  0  0  0
    2.3645   -1.8068    0.0000 C   0  0  0  0  0  0  0  0  0  0  0  0
    3.7935   -1.8068    0.0000 C   0  0  0  0  0  0  0  0  0  0  0  0
    3.0791   -2.2193    0.0000 C   0  0  0  0  0  0  0  0  0  0  0  0
  1  5  1  0
  2 13  1  0
  3 14  1  0
  4  6  1  0
  4  7  1  0
  5  6  1  0
  5  8  1  0
  7  9  1  0
  7 10  1  0
  8 11  2  0
  8 12  1  0
 11 14  1  0
 12 13  2  0
 13 15  1  0
 14 15  2  0
M  END
$$$$
