740
     RDKit          2D

 15 16  0  0  0  0  0  0  0  0999 V2000
    6.0031    0.5129    0.0000 S   0  0  0  0  0  0  0  0  0  0  0  0
    2.7770   -0.4529    0.0000 F   0  0  0  0  0  0  0  0  0  0  0  0
    1.6500   -0.1510    0.0000 F   0  0  0  0  0  0  0  0  0  0  0  0
    1.9520    0.9760    0.0000 F   0  0  0  0  0  0  0  0  0  0  0  0
    3.0791    0.6740    0.0000 O   0  0  0  0  0  0  0  0  0  0  0  0
    6.0031   -0.8149    0.0000 N   0  0  0  0  0  0  0  0  0  0  0  0
    7.3097   -0.1510    0.0000 N   0  0  0  0  0  0  0  0  0  0  0  0
    5.2224    0.2615    0.0000 C   0  0  0  0  0  0  0  0  0  0  0  0
    5.2224   -0.5635    0.0000 C   0  0  0  0  0  0  0  0  0  0  0  0
    4.5080    0.6740    0.0000 C   0  0  0  0  0  0  0  0  0  0  0  0
    3.7935    0.2615    0.0000 C   0  0  0  0  0  0  0  0  0  0  0  0
    4.5080   -0.9760    0.0000 C   0  0  0  0  0  0  0  0  0  0  0  0
    3.7935   -0.5635    0.0000 C   0  0  0  0  0  0  0  0  0  0  0  0
    6.4846   -0.1510    0.0000 C   0  0  0  0  0  0  0  0  0  0  0  0
    2.3645    0.2615    0.0000 C   0  0  0  0  0  0  0  0  0  0  0  0
  1  8  1  0
  1 14  1  0
  2 15  1  0
  3 15  1  0
  4 15  1  0
  5 11  1  0
  5 15  1  0
  6  9  1  0
  6 14  2  0
  7 14  1  0
  8  9  2  0
  8 10  1  0
  9 12  1  0
 10 11  2  0
 11 13  1  0
 12 13  2  0
M  END
$$$$
