952
     RDKit          2D

 23 25  0  0  0  0  0  0  0  0999 V2000
    3.0791   -0.5003    0.0000 S   0  0  0  0  0  0  0  0  0  0  0  0
    3.4916    0.2142    0.0000 O   0  0  0  0  0  0  0  0  0  0  0  0
    2.6665   -1.2148    0.0000 O   0  0  0  0  0  0  0  0  0  0  0  0
    8.2010    1.6912    0.0000 N   0  0  0  0  0  0  0  0  0  0  0  0
    7.4321   -1.9892    0.0000 N   0  0  0  0  0  0  0  0  0  0  0  0
    2.3645   -0.0878    0.0000 N   0  0  0  0  0  0  0  0  0  0  0  0
    7.6884    0.1228    0.0000 C   0  0  0  0  0  0  0  0  0  0  0  0
    8.4957    0.2930    0.0000 C   0  0  0  0  0  0  0  0  0  0  0  0
    7.1374    0.7369    0.0000 C   0  0  0  0  0  0  0  0  0  0  0  0
    8.7520    1.0771    0.0000 C   0  0  0  0  0  0  0  0  0  0  0  0
    7.3937    1.5211    0.0000 C   0  0  0  0  0  0  0  0  0  0  0  0
    7.4321   -0.6613    0.0000 C   0  0  0  0  0  0  0  0  0  0  0  0
    6.6515   -0.9128    0.0000 C   0  0  0  0  0  0  0  0  0  0  0  0
    7.9136   -1.3253    0.0000 C   0  0  0  0  0  0  0  0  0  0  0  0
    6.6515   -1.7378    0.0000 C   0  0  0  0  0  0  0  0  0  0  0  0
    8.4573    2.4754    0.0000 C   0  0  0  0  0  0  0  0  0  0  0  0
    5.9370   -0.5003    0.0000 C   0  0  0  0  0  0  0  0  0  0  0  0
    5.2224   -0.9128    0.0000 C   0  0  0  0  0  0  0  0  0  0  0  0
    5.9370   -2.1503    0.0000 C   0  0  0  0  0  0  0  0  0  0  0  0
    4.5080   -0.5003    0.0000 C   0  0  0  0  0  0  0  0  0  0  0  0
    5.2224   -1.7378    0.0000 C   0  0  0  0  0  0  0  0  0  0  0  0
    3.7935   -0.9128    0.0000 C   0  0  0  0  0  0  0  0  0  0  0  0
    1.6500   -0.5003    0.0000 C   0  0  0  0  0  0  0  0  0  0  0  0
  1  2  2  0
  1  3  2  0
  1  6  1  0
  1 22  1  0
  4 10  1  0
  4 11  1  0
  4 16  1  0
  5 14  1  0
  5 15  1  0
  6 23  1  0
  7  8  1  0
  7  9  1  0
  7 12  1  0
  8 10  1  0
  9 11  1  0
 12 13  1  0
 12 14  2  0
 13 15  2  0
 13 17  1  0
 15 19  1  0
 17 18  2  0
 18 20  1  0
 18 21  1  0
 19 21  2  0
 20 22  1  0
M  END
$$$$
