
     RDKit          2D

 23 26  0  0  0  0  0  0  0  0999 V2000
   16.6062  -10.3318    0.0000 C   0  0  0  0  0  0  0  0  0  0  0  0
   16.2297  -10.9592    0.0000 C   0  0  0  0  0  0  0  0  0  0  0  0
   17.1500  -10.1227    0.0000 C   0  0  0  0  0  0  0  0  0  0  0  0
   15.6859  -10.3318    0.0000 O   0  0  0  0  0  0  0  0  0  0  0  0
   17.0245  -10.6664    0.0000 C   0  0  0  0  0  0  0  0  0  0  0  0
   16.5643   -9.4952    0.0000 N   0  0  0  0  0  0  0  0  0  0  0  0
   18.0284  -10.1227    0.0000 C   0  0  0  0  0  0  0  0  0  0  0  0
   17.9865  -10.6664    0.0000 C   0  0  0  0  0  0  0  0  0  0  0  0
   16.7735   -8.7423    0.0000 C   0  0  0  0  0  0  0  0  0  0  0  0
   15.8114   -9.0769    0.0000 C   0  0  0  0  0  0  0  0  0  0  0  0
   18.7813  -11.0011    0.0000 C   0  0  0  0  0  0  0  0  0  0  0  0
   19.3669  -11.4612    0.0000 O   0  0  0  0  0  0  0  0  0  0  0  0
   20.2035  -11.4612    0.0000 C   0  0  0  0  0  0  0  0  0  0  0  0
   20.5799  -12.1723    0.0000 O   0  0  0  0  0  0  0  0  0  0  0  0
   20.5799  -10.7919    0.0000 C   0  0  0  0  0  0  0  0  0  0  0  0
   21.3747  -10.7919    0.0000 C   0  0  0  0  0  0  0  0  0  0  0  0
   20.2035  -10.0808    0.0000 C   0  0  0  0  0  0  0  0  0  0  0  0
   20.5799   -9.3697    0.0000 O   0  0  0  0  0  0  0  0  0  0  0  0
   21.7930  -11.5030    0.0000 C   0  0  0  0  0  0  0  0  0  0  0  0
   22.5877  -11.5030    0.0000 C   0  0  0  0  0  0  0  0  0  0  0  0
   23.0060  -10.7919    0.0000 C   0  0  0  0  0  0  0  0  0  0  0  0
   22.5877  -10.0808    0.0000 C   0  0  0  0  0  0  0  0  0  0  0  0
   21.7930  -10.0808    0.0000 C   0  0  0  0  0  0  0  0  0  0  0  0
  1  2  1  0
  1  3  1  0
  1  4  1  0
  2  5  1  0
  3  6  1  0
  3  7  1  1
  5  8  1  1
  6  9  1  0
  6 10  1  0
  7 11  1  0
 11 12  1  0
  2  4  1  0
  5  6  1  0
  8 11  1  0
 12 13  1  0
 13 14  2  0
 13 15  1  0
 15 16  1  0
 15 17  1  6
 17 18  1  0
 16 19  2  0
 19 20  1  0
 20 21  2  0
 21 22  1  0
 22 23  2  0
 16 23  1  0
M  CHG  1   6   1
M  END
$$$$
