262
     RDKit          2D

 12 11  0  0  0  0  0  0  0  0999 V2000
    7.3659   -0.4125    0.0000 Cl  0  0  0  0  0  0  0  0  0  0  0  0
    1.6500   -0.4125    0.0000 Cl  0  0  0  0  0  0  0  0  0  0  0  0
    4.5080   -1.2375    0.0000 O   0  0  0  0  0  0  0  0  0  0  0  0
    5.9370    1.2375    0.0000 O   0  0  0  0  0  0  0  0  0  0  0  0
    5.2224    0.0000    0.0000 N   0  0  0  0  0  0  0  0  0  0  0  0
    3.7935    0.0000    0.0000 N   0  0  0  0  0  0  0  0  0  0  0  0
    5.2224    0.8250    0.0000 N   0  0  0  0  0  0  0  0  0  0  0  0
    5.9370   -0.4125    0.0000 C   0  0  0  0  0  0  0  0  0  0  0  0
    3.0791   -0.4125    0.0000 C   0  0  0  0  0  0  0  0  0  0  0  0
    4.5080   -0.4125    0.0000 C   0  0  0  0  0  0  0  0  0  0  0  0
    6.6515    0.0000    0.0000 C   0  0  0  0  0  0  0  0  0  0  0  0
    2.3645    0.0000    0.0000 C   0  0  0  0  0  0  0  0  0  0  0  0
  1 11  1  0
  2 12  1  0
  3 10  2  0
  4  7  2  0
  5  7  1  0
  5  8  1  0
  5 10  1  0
  6  9  1  0
  6 10  1  0
  8 11  1  0
  9 12  1  0
M  END
$$$$
