
     RDKit          2D

115118  0  0  0  0  0  0  0  0999 V2000
   -1.8503   -2.0616    0.0000 C   0  0  0  0  0  0  0  0  0  0  0  0
   -1.8503   -2.8866    0.0000 O   0  0  0  0  0  0  0  0  0  0  0  0
   -2.5378   -1.6491    0.0000 C   0  0  0  0  0  0  0  0  0  0  0  0
   -3.2940   -2.0616    0.0000 N   0  0  0  0  0  0  0  0  0  0  0  0
   -2.5378   -0.8241    0.0000 C   0  0  0  0  0  0  0  0  0  0  0  0
   -0.3378   -1.2366    0.0000 O   0  0  0  0  0  0  0  0  0  0  0  0
   -6.9378   -1.6491    0.0000 C   0  0  0  0  0  0  0  0  0  0  0  0
   -4.0503   -1.6491    0.0000 C   0  0  0  0  0  0  0  0  0  0  0  0
   -6.9378   -0.8241    0.0000 O   0  0  0  0  0  0  0  0  0  0  0  0
   -6.1815   -2.0616    0.0000 C   0  0  0  0  0  0  0  0  0  0  0  0
   -4.0503   -0.8241    0.0000 O   0  0  0  0  0  0  0  0  0  0  0  0
   -5.4941   -1.6491    0.0000 C   0  0  0  0  0  0  0  0  0  0  0  0
   -4.7378   -2.0616    0.0000 C   0  0  0  0  0  0  0  0  0  0  0  0
   -7.6253   -2.0616    0.0000 O   0  0  0  0  0  0  0  0  0  0  0  0
   -4.7378   -2.8866    0.0000 N   0  0  0  0  0  0  0  0  0  0  0  0
   -5.4941   -0.8241    0.0000 C   0  0  0  0  0  0  0  0  0  0  0  0
   -5.4941   -3.3679    0.0000 C   0  0  0  0  0  0  0  0  0  0  0  0
   -5.4941   -4.1929    0.0000 C   0  0  0  0  0  0  0  0  0  0  0  0
   -6.1815   -2.8866    0.0000 O   0  0  0  0  0  0  0  0  0  0  0  0
   -4.7378   -4.6054    0.0000 N   0  0  0  0  0  0  0  0  0  0  0  0
   -6.1815   -4.6054    0.0000 C   0  0  0  0  0  0  0  0  0  0  0  0
   -6.1815   -5.4304    0.0000 O   0  0  0  0  0  0  0  0  0  0  0  0
   -4.7378   -5.4304    0.0000 C   0  0  0  0  0  0  0  0  0  0  0  0
   -5.4941   -5.8429    0.0000 O   0  0  0  0  0  0  0  0  0  0  0  0
   -3.2940   -5.4304    0.0000 N   0  0  0  0  0  0  0  0  0  0  0  0
   -4.0503   -5.8429    0.0000 C   0  0  0  0  0  0  0  0  0  0  0  0
   -2.5378   -3.3679    0.0000 O   0  0  0  0  0  0  0  0  0  0  0  0
   -1.1628   -5.8429    0.0000 N   0  0  0  0  0  0  0  0  0  0  0  0
   -3.2940   -4.6054    0.0000 O   0  0  0  0  0  0  0  0  0  0  0  0
   -2.5378   -6.6679    0.0000 O   0  0  0  0  0  0  0  0  0  0  0  0
   -1.8503   -5.4304    0.0000 C   0  0  0  0  0  0  0  0  0  0  0  0
   -2.5378   -4.1929    0.0000 C   0  0  0  0  0  0  0  0  0  0  0  0
   -2.5378   -5.8429    0.0000 C   0  0  0  0  0  0  0  0  0  0  0  0
   -1.8503   -4.6054    0.0000 C   0  0  0  0  0  0  0  0  0  0  0  0
   -0.4065   -5.4304    0.0000 C   0  0  0  0  0  0  0  0  0  0  0  0
   -0.4065   -4.6054    0.0000 O   0  0  0  0  0  0  0  0  0  0  0  0
    0.2808   -5.8429    0.0000 C   0  0  0  0  0  0  0  0  0  0  0  0
    1.0371   -5.4304    0.0000 N   0  0  0  0  0  0  0  0  0  0  0  0
    0.2808   -6.6679    0.0000 C   0  0  0  0  0  0  0  0  0  0  0  0
    1.7246   -3.3679    0.0000 O   0  0  0  0  0  0  0  0  0  0  0  0
    3.1683   -5.8429    0.0000 N   0  0  0  0  0  0  0  0  0  0  0  0
    1.0371   -4.6054    0.0000 O   0  0  0  0  0  0  0  0  0  0  0  0
    1.7246   -6.6679    0.0000 O   0  0  0  0  0  0  0  0  0  0  0  0
    2.4809   -5.4304    0.0000 C   0  0  0  0  0  0  0  0  0  0  0  0
    1.7246   -4.1929    0.0000 C   0  0  0  0  0  0  0  0  0  0  0  0
    1.7246   -5.8429    0.0000 C   0  0  0  0  0  0  0  0  0  0  0  0
    2.4809   -4.6054    0.0000 C   0  0  0  0  0  0  0  0  0  0  0  0
    4.6121   -4.1929    0.0000 C   0  0  0  0  0  0  0  0  0  0  0  0
    3.9246   -5.4304    0.0000 C   0  0  0  0  0  0  0  0  0  0  0  0
    5.3684   -4.6054    0.0000 C   0  0  0  0  0  0  0  0  0  0  0  0
    3.9246   -4.6054    0.0000 C   0  0  0  0  0  0  0  0  0  0  0  0
    3.1683   -4.1929    0.0000 N   0  0  0  0  0  0  0  0  0  0  0  0
    6.0558   -4.1929    0.0000 C   0  0  0  0  0  0  0  0  0  0  0  0
    6.8121   -4.6054    0.0000 N   0  0  0  0  0  0  0  0  0  0  0  0
    4.6121   -5.8429    0.0000 O   0  0  0  0  0  0  0  0  0  0  0  0
    3.1683   -3.3679    0.0000 C   0  0  0  0  0  0  0  0  0  0  0  0
    3.9246   -2.8866    0.0000 O   0  0  0  0  0  0  0  0  0  0  0  0
    2.4809   -2.0616    0.0000 N   0  0  0  0  0  0  0  0  0  0  0  0
    2.4809   -2.8866    0.0000 C   0  0  0  0  0  0  0  0  0  0  0  0
    1.7246   -0.8241    0.0000 C   0  0  0  0  0  0  0  0  0  0  0  0
    1.7246   -1.6491    0.0000 C   0  0  0  0  0  0  0  0  0  0  0  0
    1.0371   -2.0616    0.0000 O   0  0  0  0  0  0  0  0  0  0  0  0
    1.0371   -0.4116    0.0000 C   0  0  0  0  0  0  0  0  0  0  0  0
    2.4809   -0.4116    0.0000 N   0  0  0  0  0  0  0  0  0  0  0  0
    1.0371    0.4133    0.0000 C   0  0  0  0  0  0  0  0  0  0  0  0
    5.3403    0.4093    0.0000 O   0  0  0  0  0  0  0  0  0  0  0  0
    3.1683    1.6508    0.0000 N   0  0  0  0  0  0  0  0  0  0  0  0
    4.6428    1.6734    0.0000 O   0  0  0  0  0  0  0  0  0  0  0  0
    1.7246    0.8258    0.0000 O   0  0  0  0  0  0  0  0  0  0  0  0
    3.1683    0.8258    0.0000 C   0  0  0  0  0  0  0  0  0  0  0  0
    4.6470    0.8119    0.0000 C   0  0  0  0  0  0  0  0  0  0  0  0
    2.4809    0.4133    0.0000 C   0  0  0  0  0  0  0  0  0  0  0  0
    3.9246    0.4133    0.0000 C   0  0  0  0  0  0  0  0  0  0  0  0
    1.6557    3.3008    0.0000 C   0  0  0  0  0  0  0  0  0  0  0  0
    2.4120    2.0633    0.0000 C   0  0  0  0  0  0  0  0  0  0  0  0
    0.9683    2.8883    0.0000 C   0  0  0  0  0  0  0  0  0  0  0  0
    2.4120    2.8883    0.0000 C   0  0  0  0  0  0  0  0  0  0  0  0
    1.7245    1.6508    0.0000 O   0  0  0  0  0  0  0  0  0  0  0  0
    0.9683    2.0633    0.0000 O   0  0  0  0  0  0  0  0  0  0  0  0
    0.2120    3.3008    0.0000 N   0  0  0  0  0  0  0  0  0  0  0  0
    3.0995    3.3008    0.0000 N   0  0  0  0  0  0  0  0  0  0  0  0
    3.0995    4.1945    0.0000 C   0  0  0  0  0  0  0  0  0  0  0  0
    2.4120    4.6070    0.0000 O   0  0  0  0  0  0  0  0  0  0  0  0
    3.8558    4.6070    0.0000 C   0  0  0  0  0  0  0  0  0  0  0  0
    4.5432    4.1945    0.0000 C   0  0  0  0  0  0  0  0  0  0  0  0
    3.8558    5.4320    0.0000 N   0  0  0  0  0  0  0  0  0  0  0  0
    3.1682    5.8445    0.0000 C   0  0  0  0  0  0  0  0  0  0  0  0
    2.4120    5.4320    0.0000 C   0  0  0  0  0  0  0  0  0  0  0  0
   -1.8503    0.4133    0.0000 C   0  0  0  0  0  0  0  0  0  0  0  0
   -2.5378    0.8258    0.0000 C   0  0  0  0  0  0  0  0  0  0  0  0
   -2.5378    1.6508    0.0000 C   0  0  0  0  0  0  0  0  0  0  0  0
   -1.8503    2.0633    0.0000 C   0  0  0  0  0  0  0  0  0  0  0  0
   -1.1628    1.6508    0.0000 C   0  0  0  0  0  0  0  0  0  0  0  0
   -1.1628    0.8258    0.0000 C   0  0  0  0  0  0  0  0  0  0  0  0
   -3.2940    0.4133    0.0000 N   0  0  0  0  0  0  0  0  0  0  0  0
   -1.8503   -0.4116    0.0000 C   0  0  0  0  0  0  0  0  0  0  0  0
   -1.1628   -0.8241    0.0000 O   0  0  0  0  0  0  0  0  0  0  0  0
    5.2577    4.6070    0.0000 C   0  0  0  0  0  0  0  0  0  0  0  0
    5.3440    5.4275    0.0000 C   0  0  0  0  0  0  0  0  0  0  0  0
    6.1509    5.5990    0.0000 N   0  0  0  0  0  0  0  0  0  0  0  0
    6.5634    4.8845    0.0000 C   0  0  0  0  0  0  0  0  0  0  0  0
    6.0114    4.2715    0.0000 C   0  0  0  0  0  0  0  0  0  0  0  0
    6.2663    3.4869    0.0000 C   0  0  0  0  0  0  0  0  0  0  0  0
    7.3704    4.7130    0.0000 C   0  0  0  0  0  0  0  0  0  0  0  0
    7.6253    3.9284    0.0000 C   0  0  0  0  0  0  0  0  0  0  0  0
    7.0733    3.3153    0.0000 C   0  0  0  0  0  0  0  0  0  0  0  0
    3.1724    6.6679    0.0000 O   0  0  0  0  0  0  0  0  0  0  0  0
    1.7245    5.8445    0.0000 C   0  0  0  0  0  0  0  0  0  0  0  0
    0.9683    5.4320    0.0000 C   0  0  0  0  0  0  0  0  0  0  0  0
    0.2807    5.8445    0.0000 C   0  0  0  0  0  0  0  0  0  0  0  0
   -0.4754    5.4320    0.0000 C   0  0  0  0  0  0  0  0  0  0  0  0
   -1.1629    5.8445    0.0000 C   0  0  0  0  0  0  0  0  0  0  0  0
   -1.8504    5.4320    0.0000 C   0  0  0  0  0  0  0  0  0  0  0  0
   -2.6067    5.8445    0.0000 C   0  0  0  0  0  0  0  0  0  0  0  0
   -3.2942    5.4320    0.0000 C   0  0  0  0  0  0  0  0  0  0  0  0
  2  1  2  0
  3  1  1  0
  6  1  1  0
  3  4  1  0
  3  5  1  1
  8  4  1  0
 96  5  1  0
 63  6  1  0
  9  7  2  0
 10  7  1  0
 14  7  1  0
 13  8  1  0
 11  8  2  0
 12 10  1  0
 13 12  1  0
 12 16  1  1
 13 15  1  1
 17 15  1  0
 18 17  1  0
 19 17  2  0
 18 20  1  0
 18 21  1  6
 23 20  1  0
 22 21  1  0
 24 23  2  0
 26 23  1  0
 26 25  1  0
 33 25  1  0
 32 27  1  0
 31 28  1  0
 35 28  1  0
 32 29  2  0
 33 30  2  0
 33 31  1  0
 31 34  1  6
 34 32  1  0
 36 35  2  0
 37 35  1  0
 37 38  1  0
 37 39  1  6
 46 38  1  0
 45 40  1  0
 44 41  1  0
 49 41  1  0
 45 42  2  0
 46 43  2  0
 46 44  1  0
 44 47  1  6
 47 45  1  0
 50 48  1  0
 51 48  1  1
 51 49  1  0
 55 49  2  0
 53 50  1  0
 51 52  1  0
 56 52  1  0
 54 53  1  0
 57 56  2  0
 59 56  1  0
 59 58  1  0
 61 58  1  0
 61 60  1  0
 63 60  1  0
 60 64  1  6
 62 61  2  0
 63 65  1  6
 72 64  1  0
 71 66  1  0
 70 67  1  0
 75 67  1  0
 71 68  2  0
 72 69  2  0
 72 70  1  0
 70 73  1  1
 73 71  1  0
 76 74  1  0
 77 74  1  6
 77 75  1  0
 78 75  2  0
 79 76  2  0
 80 76  1  0
 77 81  1  0
 82 81  1  0
 83 82  2  0
 84 82  1  0
 84 85  1  1
 84 86  1  0
 87 86  1  0
 88 87  1  0
 94 89  1  0
 90 89  2  0
 96 89  1  0
 91 90  1  0
 95 90  1  0
 92 91  2  0
 93 92  1  0
 94 93  2  0
 97 96  2  0
 98 85  1  0
 99 98  2  0
102 98  1  0
100 99  1  0
101100  1  0
102101  2  0
104101  1  0
103102  1  0
106103  2  0
105104  2  0
106105  1  0
 87107  2  0
108 88  1  0
109108  1  0
110109  1  0
111110  1  0
112111  1  0
113112  1  0
114113  1  0
115114  1  0
M  END
$$$$
