
     RDKit          2D

 57 65  0  0  0  0  0  0  0  0999 V2000
   -1.4347    1.8312    0.0000 N   0  0  0  0  0  0  0  0  0  0  0  0
   -1.4324    1.0051    0.0000 C   0  0  0  0  0  0  0  0  0  0  0  0
   -0.7196    0.5971    0.0000 C   0  0  0  0  0  0  0  0  0  0  0  0
   -0.0051    1.0104    0.0000 C   0  0  0  0  0  0  0  0  0  0  0  0
   -0.0082    1.8365    0.0000 C   0  0  0  0  0  0  0  0  0  0  0  0
   -0.7258    2.2491    0.0000 C   0  0  0  0  0  0  0  0  0  0  0  0
   -0.7176   -0.2280    0.0000 C   0  0  0  0  0  0  0  0  0  0  0  0
   -1.4511   -0.6057    0.0000 C   0  0  0  0  0  0  0  0  0  0  0  0
   -2.0750   -1.1495    0.0000 C   0  0  0  0  0  0  0  0  0  0  0  0
   -0.7355   -1.0102    0.0000 C   0  0  0  0  0  0  0  0  0  0  0  0
   -0.7308   -1.8333    0.0000 C   0  0  0  0  0  0  0  0  0  0  0  0
   -0.0160   -2.2378    0.0000 C   0  0  0  0  0  0  0  0  0  0  0  0
   -0.0322   -0.5933    0.0000 C   0  0  0  0  0  0  0  0  0  0  0  0
    0.6830   -0.9941    0.0000 C   0  0  0  0  0  0  0  0  0  0  0  0
    0.6959   -1.8168    0.0000 C   0  0  0  0  0  0  0  0  0  0  0  0
    1.4825   -2.0589    0.0000 N   0  0  0  0  0  0  0  0  0  0  0  0
    1.4615   -0.7275    0.0000 C   0  0  0  0  0  0  0  0  0  0  0  0
    1.9544   -1.3883    0.0000 C   0  0  0  0  0  0  0  0  0  0  0  0
    2.7685   -1.2923    0.0000 C   0  0  0  0  0  0  0  0  0  0  0  0
    3.0960   -0.5370    0.0000 C   0  0  0  0  0  0  0  0  0  0  0  0
    2.6045    0.1206    0.0000 C   0  0  0  0  0  0  0  0  0  0  0  0
    2.9341    0.8739    0.0000 C   0  0  0  0  0  0  0  0  0  0  0  0
    2.4462    1.5405    0.0000 C   0  0  0  0  0  0  0  0  0  0  0  0
    1.6244    1.4489    0.0000 C   0  0  0  0  0  0  0  0  0  0  0  0
    1.7876    0.0273    0.0000 C   0  0  0  0  0  0  0  0  0  0  0  0
    1.2907    0.6906    0.0000 N   0  0  0  0  0  0  0  0  0  0  0  0
    0.5062    0.4231    0.0000 C   0  0  0  0  0  0  0  0  0  0  0  0
    0.5182   -0.4056    0.0000 C   0  0  0  0  0  0  0  0  0  0  0  0
    3.3955    0.3419    0.0000 C   0  0  0  0  0  0  0  0  0  0  0  0
    3.6002    1.1412    0.0000 C   0  0  0  0  0  0  0  0  0  0  0  0
    1.7496   -2.8395    0.0000 C   0  0  0  0  0  0  0  0  0  0  0  0
   -1.4424   -2.2510    0.0000 O   0  0  0  0  0  0  0  0  0  0  0  0
   -1.9104   -1.9555    0.0000 O   0  0  0  0  0  0  0  0  0  0  0  0
   -1.4364   -3.0760    0.0000 C   0  0  0  0  0  0  0  0  0  0  0  0
   -2.8565   -0.8850    0.0000 O   0  0  0  0  0  0  0  0  0  0  0  0
   -3.4763   -1.4297    0.0000 C   0  0  0  0  0  0  0  0  0  0  0  0
    0.7051    2.2511    0.0000 C   0  0  0  0  0  0  0  0  0  0  0  0
    0.7028    3.0760    0.0000 C   0  0  0  0  0  0  0  0  0  0  0  0
    3.4833   -1.7042    0.0000 C   0  0  0  0  0  0  0  0  0  0  0  0
    2.7645   -2.1118    0.0000 O   0  0  0  0  0  0  0  0  0  0  0  0
    3.4839   -2.5293    0.0000 O   0  0  0  0  0  0  0  0  0  0  0  0
    4.1975   -1.2912    0.0000 O   0  0  0  0  0  0  0  0  0  0  0  0
    4.9123   -1.7032    0.0000 C   0  0  0  0  0  0  0  0  0  0  0  0
   -4.9847    1.5335    0.0000 C   0  0  0  0  0  0  0  0  0  0  0  0
   -5.2395    0.7462    0.0000 C   0  0  0  0  0  0  0  0  0  0  0  0
   -4.6857    0.1341    0.0000 C   0  0  0  0  0  0  0  0  0  0  0  0
   -4.1806    1.7082    0.0000 C   0  0  0  0  0  0  0  0  0  0  0  0
   -3.6250    1.0994    0.0000 C   0  0  0  0  0  0  0  0  0  0  0  0
   -3.8796    0.3082    0.0000 C   0  0  0  0  0  0  0  0  0  0  0  0
   -3.2058   -0.1783    0.0000 N   0  0  0  0  0  0  0  0  0  0  0  0
   -2.5348    0.3120    0.0000 C   0  0  0  0  0  0  0  0  0  0  0  0
   -2.7940    1.1017    0.0000 C   0  0  0  0  0  0  0  0  0  0  0  0
   -2.4093    1.8288    0.0000 C   0  0  0  0  0  0  0  0  0  0  0  0
    3.8105   -0.9496    0.0000 O   0  0  0  0  0  0  0  0  0  0  0  0
    4.5250   -0.5370    0.0000 C   0  0  0  0  0  0  0  0  0  0  0  0
    5.2395   -0.9496    0.0000 C   0  0  0  0  0  0  0  0  0  0  0  0
    4.5250    0.2879    0.0000 O   0  0  0  0  0  0  0  0  0  0  0  0
  1  6  1  0
  2  3  1  0
 17 25  1  0
 18 19  1  0
 19 20  1  0
 20 21  1  0
 25 21  1  0
  3  4  1  1
  4  5  2  0
  5  6  1  0
 21 22  1  0
 22 23  2  0
 23 24  1  0
 24 26  1  0
 25 26  1  1
  3  7  1  0
  7  8  1  0
 26 27  1  0
 28 27  1  0
 17 28  1  1
  8  9  1  1
 21 29  1  6
  9 33  2  0
 29 30  1  0
  8 10  1  0
 10 11  2  0
 16 31  1  0
 11 12  1  0
 12 15  2  0
 11 32  1  0
  1  2  1  0
 14 13  2  0
 32 34  1  0
 13 10  1  0
  9 35  1  0
 14 15  1  0
 35 36  1  0
  5 37  1  0
 37 38  1  0
 15 16  1  0
 18 16  1  6
 17 14  1  0
 17 18  1  0
 39 19  1  0
 19 40  1  1
 39 41  2  0
 39 42  1  0
 42 43  1  0
 48 47  1  0
 49 50  1  0
 50 51  1  0
 51 52  2  0
 52 48  1  0
 47 44  2  0
 48 49  2  0
 45 46  2  0
 46 49  1  0
 44 45  1  0
 52 53  1  0
  1 53  1  0
 51  8  1  0
 20 54  1  1
 54 55  1  0
 55 56  1  0
 55 57  2  0
M  END
$$$$
