450
     RDKit          2D

 28 31  0  0  1  0  0  0  0  0999 V2000
    7.7808    4.6060    0.0000 F   0  0  0  0  0  0  0  0  0  0  0  0
    5.1661   -3.4559    0.0000 O   0  0  0  0  0  0  0  0  0  0  0  0
    7.3066    0.8552    0.0000 O   0  0  0  0  0  0  0  0  0  0  0  0
    4.6285   -0.4394    0.0000 N   0  0  0  0  0  0  0  0  0  0  0  0
    3.8596   -2.7920    0.0000 N   0  0  0  0  0  0  0  0  0  0  0  0
    3.8596   -4.1198    0.0000 N   0  0  0  0  0  0  0  0  0  0  0  0
    5.1795   -1.0535    0.0000 C   0  0  0  0  0  0  0  0  0  0  0  0
    4.9232   -1.8376    0.0000 C   0  0  0  0  0  0  0  0  0  0  0  0
    3.8213   -0.6095    0.0000 C   0  0  0  0  0  0  0  0  0  0  0  0
    4.1159   -2.0077    0.0000 C   0  0  0  0  0  0  0  0  0  0  0  0
    4.8848    0.3448    0.0000 C   0  0  0  0  0  0  0  0  0  0  0  0
    3.5649   -1.3937    0.0000 C   0  0  0  0  0  0  0  0  0  0  0  0
    5.6921    0.5149    0.0000 C   0  0  0  0  0  0  0  0  0  0  0  0
    3.0790   -3.0434    0.0000 C   0  0  0  0  0  0  0  0  0  0  0  0
    5.9484    1.2991    0.0000 C   0  0  0  0  0  0  0  0  0  0  0  0
    4.3411   -3.4559    0.0000 C   0  0  0  0  0  0  0  0  0  0  0  0
    3.0790   -3.8684    0.0000 C   0  0  0  0  0  0  0  0  0  0  0  0
    2.3645   -2.6309    0.0000 C   0  0  0  0  0  0  0  0  0  0  0  0
    6.7557    1.4693    0.0000 C   0  0  0  0  0  0  0  0  0  0  0  0
    2.3645   -4.2809    0.0000 C   0  0  0  0  0  0  0  0  0  0  0  0
    1.6500   -3.0434    0.0000 C   0  0  0  0  0  0  0  0  0  0  0  0
    1.6500   -3.8684    0.0000 C   0  0  0  0  0  0  0  0  0  0  0  0
    7.0120    2.2534    0.0000 C   0  0  0  0  0  0  0  0  0  0  0  0
    6.4610    2.8675    0.0000 C   0  0  0  0  0  0  0  0  0  0  0  0
    7.8193    2.4235    0.0000 C   0  0  0  0  0  0  0  0  0  0  0  0
    6.7173    3.6517    0.0000 C   0  0  0  0  0  0  0  0  0  0  0  0
    8.0755    3.2077    0.0000 C   0  0  0  0  0  0  0  0  0  0  0  0
    7.5246    3.8218    0.0000 C   0  0  0  0  0  0  0  0  0  0  0  0
  1 28  1  0
  2 16  2  0
  3 19  2  0
  4  7  1  0
  4  9  1  0
  4 11  1  0
  5 10  1  0
  5 14  1  0
  5 16  1  0
  6 16  1  0
  6 17  1  0
  7  8  1  0
  8 10  1  0
  9 12  1  0
 10 12  2  0
 11 13  1  0
 13 15  1  0
 14 17  2  0
 14 18  1  0
 15 19  1  0
 17 20  1  0
 18 21  2  0
 19 23  1  0
 20 22  2  0
 21 22  1  0
 23 24  2  0
 23 25  1  0
 24 26  1  0
 25 27  2  0
 26 28  2  0
 27 28  1  0
M  END
$$$$
