694
     RDKit          2D

 38 42  0  0  1  0  0  0  0  0999 V2000
    4.9342    0.4160    0.0000 O   0  0  0  0  0  0  0  0  0  0  0  0
    3.5054    0.4325    0.0000 O   0  0  0  0  0  0  0  0  0  0  0  0
    3.7675   -2.4080    0.0000 O   0  0  0  0  0  0  0  0  0  0  0  0
    2.0958    2.0988    0.0000 O   0  0  0  0  0  0  0  0  0  0  0  0
    6.3765    0.3875    0.0000 O   0  0  0  0  0  0  0  0  0  0  0  0
    6.3765   -2.9123    0.0000 O   0  0  0  0  0  0  0  0  0  0  0  0
    2.9370   -0.9824    0.0000 O   0  0  0  0  0  0  0  0  0  0  0  0
    7.8188    0.4160    0.0000 O   0  0  0  0  0  0  0  0  0  0  0  0
    7.8188   -2.9408    0.0000 O   0  0  0  0  0  0  0  0  0  0  0  0
    9.3345    0.4516    0.0000 O   0  0  0  0  0  0  0  0  0  0  0  0
    3.5341    2.9072    0.0000 N   0  0  0  0  0  0  0  0  0  0  0  0
    4.9247   -0.4089    0.0000 C   0  0  0  0  0  0  0  0  0  0  0  0
    4.1771   -1.6920    0.0000 C   0  0  0  0  0  0  0  0  0  0  0  0
    4.1771   -0.8327    0.0000 C   0  0  0  0  0  0  0  0  0  0  0  0
    4.9247   -2.1160    0.0000 C   0  0  0  0  0  0  0  0  0  0  0  0
    5.6620   -0.8499    0.0000 C   0  0  0  0  0  0  0  0  0  0  0  0
    5.6620   -1.6749    0.0000 C   0  0  0  0  0  0  0  0  0  0  0  0
    4.2245    0.8367    0.0000 C   0  0  0  0  0  0  0  0  0  0  0  0
    4.2341    1.6616    0.0000 C   0  0  0  0  0  0  0  0  0  0  0  0
    3.5245    2.0823    0.0000 C   0  0  0  0  0  0  0  0  0  0  0  0
    2.8054    1.6781    0.0000 C   0  0  0  0  0  0  0  0  0  0  0  0
    2.7958    0.8532    0.0000 C   0  0  0  0  0  0  0  0  0  0  0  0
    6.3765   -0.4375    0.0000 C   0  0  0  0  0  0  0  0  0  0  0  0
    3.3522   -1.6953    0.0000 C   0  0  0  0  0  0  0  0  0  0  0  0
    6.3765   -2.0874    0.0000 C   0  0  0  0  0  0  0  0  0  0  0  0
    7.0910   -0.8499    0.0000 C   0  0  0  0  0  0  0  0  0  0  0  0
    7.0910   -1.6749    0.0000 C   0  0  0  0  0  0  0  0  0  0  0  0
    2.0767    0.4490    0.0000 C   0  0  0  0  0  0  0  0  0  0  0  0
    2.9425   -2.4112    0.0000 C   0  0  0  0  0  0  0  0  0  0  0  0
    7.8284   -0.4089    0.0000 C   0  0  0  0  0  0  0  0  0  0  0  0
    7.8284   -2.1160    0.0000 C   0  0  0  0  0  0  0  0  0  0  0  0
    8.5759   -0.8327    0.0000 C   0  0  0  0  0  0  0  0  0  0  0  0
    8.5759   -1.6920    0.0000 C   0  0  0  0  0  0  0  0  0  0  0  0
    9.3439   -0.3734    0.0000 C   0  0  0  0  0  0  0  0  0  0  0  0
    9.3439   -2.1515    0.0000 C   0  0  0  0  0  0  0  0  0  0  0  0
   10.1226   -0.8148    0.0000 C   0  0  0  0  0  0  0  0  0  0  0  0
   10.1226   -1.7099    0.0000 C   0  0  0  0  0  0  0  0  0  0  0  0
   10.0440    0.8722    0.0000 C   0  0  0  0  0  0  0  0  0  0  0  0
 12  1  1  6
 18  1  1  6
  2 18  1  0
  2 22  1  0
 13  3  1  6
 21  4  1  1
  5 23  1  0
  6 25  1  0
  7 24  2  0
  8 30  2  0
  9 31  2  0
 10 34  1  0
 10 38  1  0
 20 11  1  1
 12 14  1  0
 12 16  1  0
 13 14  1  0
 13 15  1  0
 13 24  1  0
 15 17  1  0
 16 17  2  0
 16 23  1  0
 17 25  1  0
 18 19  1  0
 19 20  1  0
 20 21  1  0
 21 22  1  0
 22 28  1  1
 23 26  2  0
 24 29  1  0
 25 27  2  0
 26 27  1  0
 26 30  1  0
 27 31  1  0
 30 32  1  0
 31 33  1  0
 32 33  2  0
 32 34  1  0
 33 35  1  0
 34 36  2  0
 35 37  2  0
 36 37  1  0
M  END
$$$$
