231
     RDKit          2D

 21 23  0  0  1  0  0  0  0  0999 V2000
    2.8172   -2.3783    0.0000 Cl  0  0  0  0  0  0  0  0  0  0  0  0
    4.1516    2.3401    0.0000 O   0  0  0  0  0  0  0  0  0  0  0  0
    2.6107    2.3401    0.0000 O   0  0  0  0  0  0  0  0  0  0  0  0
    2.4543    0.9518    0.0000 N   0  0  0  0  0  0  0  0  0  0  0  0
    4.3080    0.9518    0.0000 N   0  0  0  0  0  0  0  0  0  0  0  0
    2.6378    0.1475    0.0000 C   0  0  0  0  0  0  0  0  0  0  0  0
    3.3811   -0.2105    0.0000 C   0  0  0  0  0  0  0  0  0  0  0  0
    4.1245    0.1475    0.0000 C   0  0  0  0  0  0  0  0  0  0  0  0
    3.7936    1.5968    0.0000 C   0  0  0  0  0  0  0  0  0  0  0  0
    2.9687    1.5968    0.0000 C   0  0  0  0  0  0  0  0  0  0  0  0
    4.7694   -0.3669    0.0000 C   0  0  0  0  0  0  0  0  0  0  0  0
    3.4586   -1.0663    0.0000 C   0  0  0  0  0  0  0  0  0  0  0  0
    1.9205   -0.3256    0.0000 C   0  0  0  0  0  0  0  0  0  0  0  0
    1.6500    1.1354    0.0000 C   0  0  0  0  0  0  0  0  0  0  0  0
    2.7523   -1.5559    0.0000 C   0  0  0  0  0  0  0  0  0  0  0  0
    1.9781   -1.1830    0.0000 C   0  0  0  0  0  0  0  0  0  0  0  0
    5.5374   -0.0655    0.0000 C   0  0  0  0  0  0  0  0  0  0  0  0
    4.6465   -1.1827    0.0000 C   0  0  0  0  0  0  0  0  0  0  0  0
    6.1824   -0.5799    0.0000 C   0  0  0  0  0  0  0  0  0  0  0  0
    5.2915   -1.6971    0.0000 C   0  0  0  0  0  0  0  0  0  0  0  0
    6.0595   -1.3956    0.0000 C   0  0  0  0  0  0  0  0  0  0  0  0
  1 15  1  0
  2  9  1  0
  3 10  2  0
  4  6  1  0
  4 10  1  0
  4 14  1  0
  5  8  2  0
  5  9  1  0
  6  7  2  0
  6 13  1  0
  7  8  1  0
  7 12  1  0
  8 11  1  0
  9 10  1  0
 11 17  2  0
 11 18  1  0
 12 15  2  0
 13 16  2  0
 15 16  1  0
 17 19  1  0
 18 20  2  0
 19 21  2  0
 20 21  1  0
M  END
$$$$
