802
     RDKit          2D

 30 32  0  0  0  0  0  0  0  0999 V2000
    2.5791    2.4872    0.0000 O   0  0  0  0  0  0  0  0  0  0  0  0
    2.9916    3.2016    0.0000 O   0  0  0  0  0  0  0  0  0  0  0  0
    1.6500   -2.1699    0.0000 O   0  0  0  0  0  0  0  0  0  0  0  0
    3.8166    0.1227    0.0000 N   0  0  0  0  0  0  0  0  0  0  0  0
    4.2291    2.4872    0.0000 N   0  0  0  0  0  0  0  0  0  0  0  0
    3.1022   -1.9399    0.0000 N   0  0  0  0  0  0  0  0  0  0  0  0
    3.7696   -2.4248    0.0000 N   0  0  0  0  0  0  0  0  0  0  0  0
    2.6896   -3.2095    0.0000 N   0  0  0  0  0  0  0  0  0  0  0  0
    3.5147   -3.2095    0.0000 N   0  0  0  0  0  0  0  0  0  0  0  0
    3.8166    1.7727    0.0000 C   0  0  0  0  0  0  0  0  0  0  0  0
    4.5311    1.3602    0.0000 C   0  0  0  0  0  0  0  0  0  0  0  0
    3.1022    1.3602    0.0000 C   0  0  0  0  0  0  0  0  0  0  0  0
    4.5311    0.5352    0.0000 C   0  0  0  0  0  0  0  0  0  0  0  0
    3.1022    0.5352    0.0000 C   0  0  0  0  0  0  0  0  0  0  0  0
    3.4041    2.4872    0.0000 C   0  0  0  0  0  0  0  0  0  0  0  0
    3.8166   -0.7023    0.0000 C   0  0  0  0  0  0  0  0  0  0  0  0
    5.0541    2.4872    0.0000 C   0  0  0  0  0  0  0  0  0  0  0  0
    3.8166    3.2016    0.0000 C   0  0  0  0  0  0  0  0  0  0  0  0
    3.1022   -1.1148    0.0000 C   0  0  0  0  0  0  0  0  0  0  0  0
    4.2291    3.9161    0.0000 C   0  0  0  0  0  0  0  0  0  0  0  0
    5.4667    3.2016    0.0000 C   0  0  0  0  0  0  0  0  0  0  0  0
    5.4667    1.7727    0.0000 C   0  0  0  0  0  0  0  0  0  0  0  0
    2.1666    3.2016    0.0000 C   0  0  0  0  0  0  0  0  0  0  0  0
    3.8166    4.6307    0.0000 C   0  0  0  0  0  0  0  0  0  0  0  0
    6.2917    3.2016    0.0000 C   0  0  0  0  0  0  0  0  0  0  0  0
    6.2917    1.7727    0.0000 C   0  0  0  0  0  0  0  0  0  0  0  0
    2.4347   -2.4248    0.0000 C   0  0  0  0  0  0  0  0  0  0  0  0
    6.7042    2.4872    0.0000 C   0  0  0  0  0  0  0  0  0  0  0  0
    2.2047   -3.8769    0.0000 C   0  0  0  0  0  0  0  0  0  0  0  0
    2.5402   -4.6307    0.0000 C   0  0  0  0  0  0  0  0  0  0  0  0
  1 15  1  0
  1 23  1  0
  2 18  2  0
  3 27  2  0
  4 13  1  0
  4 14  1  0
  4 16  1  0
  5 10  1  0
  5 17  1  0
  5 18  1  0
  6  7  1  0
  6 19  1  0
  6 27  1  0
  7  9  2  0
  8  9  1  0
  8 27  1  0
  8 29  1  0
 10 11  1  0
 10 12  1  0
 10 15  1  0
 11 13  1  0
 12 14  1  0
 16 19  1  0
 17 21  2  0
 17 22  1  0
 18 20  1  0
 20 24  1  0
 21 25  1  0
 22 26  2  0
 25 28  2  0
 26 28  1  0
 29 30  1  0
M  END
$$$$
