152
     RDKit          2D

 18 19  0  0  0  0  0  0  0  0999 V2000
    1.9050    0.8501    0.0000 S   0  0  0  0  0  0  0  0  0  0  0  0
    3.3643    2.9387    0.0000 O   0  0  0  0  0  0  0  0  0  0  0  0
    2.3175   -0.4194    0.0000 N   0  0  0  0  0  0  0  0  0  0  0  0
    3.7465   -2.8945    0.0000 N   0  0  0  0  0  0  0  0  0  0  0  0
    4.4610   -1.6570    0.0000 N   0  0  0  0  0  0  0  0  0  0  0  0
    2.3175   -2.8945    0.0000 N   0  0  0  0  0  0  0  0  0  0  0  0
    2.9849    0.0655    0.0000 C   0  0  0  0  0  0  0  0  0  0  0  0
    2.3175   -1.2445    0.0000 C   0  0  0  0  0  0  0  0  0  0  0  0
    2.7300    0.8501    0.0000 C   0  0  0  0  0  0  0  0  0  0  0  0
    3.2149    1.5175    0.0000 C   0  0  0  0  0  0  0  0  0  0  0  0
    3.0319   -1.6570    0.0000 C   0  0  0  0  0  0  0  0  0  0  0  0
    1.6500    0.0655    0.0000 C   0  0  0  0  0  0  0  0  0  0  0  0
    3.7696   -0.1894    0.0000 C   0  0  0  0  0  0  0  0  0  0  0  0
    2.8794    2.2713    0.0000 C   0  0  0  0  0  0  0  0  0  0  0  0
    3.0319   -2.4820    0.0000 C   0  0  0  0  0  0  0  0  0  0  0  0
    3.7465   -1.2445    0.0000 C   0  0  0  0  0  0  0  0  0  0  0  0
    4.4610   -2.4820    0.0000 C   0  0  0  0  0  0  0  0  0  0  0  0
    5.1754   -2.8945    0.0000 C   0  0  0  0  0  0  0  0  0  0  0  0
  1  9  1  0
  1 12  1  0
  2 14  1  0
  3  7  1  0
  3  8  1  0
  3 12  2  0
  4 15  2  0
  4 17  1  0
  5 16  1  0
  5 17  2  0
  6 15  1  0
  7  9  2  0
  7 13  1  0
  8 11  1  0
  9 10  1  0
 10 14  1  0
 11 15  1  0
 11 16  2  0
 17 18  1  0
M  CHG  1   3   1
M  END
$$$$
