
     RDKit          2D

 17 17  0  0  0  0  0  0  0  0999 V2000
    0.6195   -3.3497    0.0000 C   0  0  0  0  0  0  0  0  0  0  0  0
    1.0319   -2.6352    0.0000 C   0  0  0  0  0  0  0  0  0  0  0  0
    1.8569   -2.6352    0.0000 C   0  0  0  0  0  0  0  0  0  0  0  0
    2.2695   -1.9208    0.0000 C   0  0  0  0  0  0  0  0  0  0  0  0
    1.8569   -1.2063    0.0000 C   0  0  0  0  0  0  0  0  0  0  0  0
    3.0945   -1.9208    0.0000 C   0  0  0  0  0  0  0  0  0  0  0  0
    2.6820   -2.6352    0.0000 C   0  0  0  0  0  0  0  0  0  0  0  0
    3.0945   -3.3497    0.0000 C   0  0  0  0  0  0  0  0  0  0  0  0
    3.0945   -1.0958    0.0000 C   0  0  0  0  0  0  0  0  0  0  0  0
    2.3800   -0.6832    0.0000 O   0  0  0  0  0  0  0  0  0  0  0  0
    3.8089   -0.6832    0.0000 N   0  0  0  0  0  0  0  0  0  0  0  0
    4.5234   -1.0958    0.0000 C   0  0  0  0  0  0  0  0  0  0  0  0
    5.2379   -0.6832    0.0000 O   0  0  0  0  0  0  0  0  0  0  0  0
    4.5234   -1.9208    0.0000 N   0  0  0  0  0  0  0  0  0  0  0  0
    3.8089   -2.3333    0.0000 C   0  0  0  0  0  0  0  0  0  0  0  0
    3.8089   -3.1583    0.0000 O   0  0  0  0  0  0  0  0  0  0  0  0
    2.6820   -4.0642    0.0000 C   0  0  0  0  0  0  0  0  0  0  0  0
  1  2  1  0
  2  3  1  0
  3  4  1  0
  4  5  1  0
  4  6  1  0
  6  7  1  0
  6  9  1  0
  6 15  1  0
  7  8  1  0
  9 10  2  0
  9 11  1  0
 11 12  1  0
 12 13  2  0
 12 14  1  0
 14 15  1  0
 15 16  2  0
 17  8  2  3
M  END
$$$$
