557
     RDKit          2D

 26 28  0  0  1  0  0  0  0  0999 V2000
    1.6500   -4.1746    0.0000 Cl  0  0  0  0  0  0  0  0  0  0  0  0
    5.2224    2.0130    0.0000 O   0  0  0  0  0  0  0  0  0  0  0  0
    6.6515    3.6631    0.0000 O   0  0  0  0  0  0  0  0  0  0  0  0
    4.5080   -1.6995    0.0000 N   0  0  0  0  0  0  0  0  0  0  0  0
    4.5080   -0.0495    0.0000 N   0  0  0  0  0  0  0  0  0  0  0  0
    5.2224   -1.2870    0.0000 C   0  0  0  0  0  0  0  0  0  0  0  0
    3.7935   -1.2870    0.0000 C   0  0  0  0  0  0  0  0  0  0  0  0
    5.2224   -0.4620    0.0000 C   0  0  0  0  0  0  0  0  0  0  0  0
    3.7935   -0.4620    0.0000 C   0  0  0  0  0  0  0  0  0  0  0  0
    4.5080   -2.5246    0.0000 C   0  0  0  0  0  0  0  0  0  0  0  0
    4.5080    0.7755    0.0000 C   0  0  0  0  0  0  0  0  0  0  0  0
    3.7935   -2.9371    0.0000 C   0  0  0  0  0  0  0  0  0  0  0  0
    5.2224   -2.9371    0.0000 C   0  0  0  0  0  0  0  0  0  0  0  0
    5.2224    1.1880    0.0000 C   0  0  0  0  0  0  0  0  0  0  0  0
    3.7935   -3.7621    0.0000 C   0  0  0  0  0  0  0  0  0  0  0  0
    3.0791   -2.5246    0.0000 C   0  0  0  0  0  0  0  0  0  0  0  0
    5.9370   -2.5246    0.0000 C   0  0  0  0  0  0  0  0  0  0  0  0
    5.2224   -3.7621    0.0000 C   0  0  0  0  0  0  0  0  0  0  0  0
    3.0791   -4.1746    0.0000 C   0  0  0  0  0  0  0  0  0  0  0  0
    2.3645   -2.9371    0.0000 C   0  0  0  0  0  0  0  0  0  0  0  0
    6.6515   -2.9371    0.0000 C   0  0  0  0  0  0  0  0  0  0  0  0
    5.9370   -4.1746    0.0000 C   0  0  0  0  0  0  0  0  0  0  0  0
    2.3645   -3.7621    0.0000 C   0  0  0  0  0  0  0  0  0  0  0  0
    6.6515   -3.7621    0.0000 C   0  0  0  0  0  0  0  0  0  0  0  0
    5.9370    2.4256    0.0000 C   0  0  0  0  0  0  0  0  0  0  0  0
    5.9370    3.2506    0.0000 C   0  0  0  0  0  0  0  0  0  0  0  0
  1 23  1  0
  2 14  1  0
  2 25  1  0
  3 26  1  0
  4  6  1  0
  4  7  1  0
  4 10  1  0
  5  8  1  0
  5  9  1  0
  5 11  1  0
  6  8  1  0
  7  9  1  0
 10 12  1  0
 10 13  1  0
 11 14  1  0
 12 15  2  0
 12 16  1  0
 13 17  2  0
 13 18  1  0
 15 19  1  0
 16 20  2  0
 17 21  1  0
 18 22  2  0
 19 23  2  0
 20 23  1  0
 21 24  2  0
 22 24  1  0
 25 26  1  0
M  END
$$$$
