
     RDKit          2D

 57 64  0  0  0  0  0  0  0  0999 V2000
   -1.5313    0.3875    0.0000 C   0  0  0  0  0  0  0  0  0  0  0  0
   -2.2457   -0.0250    0.0000 C   0  0  0  0  0  0  0  0  0  0  0  0
   -1.5313   -1.2625    0.0000 C   0  0  0  0  0  0  0  0  0  0  0  0
   -0.1023   -1.2625    0.0000 C   0  0  0  0  0  0  0  0  0  0  0  0
    0.6121   -0.8500    0.0000 C   0  0  0  0  0  0  0  0  0  0  0  0
   -0.1023    1.2125    0.0000 C   0  0  0  0  0  0  0  0  0  0  0  0
    2.1112    0.1326    0.0000 C   0  0  0  0  0  0  0  0  0  0  0  0
   -2.2457   -0.8500    0.0000 C   0  0  0  0  0  0  0  0  0  0  0  0
   -0.8168   -0.8500    0.0000 C   0  0  0  0  0  0  0  0  0  0  0  0
   -0.8168   -0.0250    0.0000 C   0  0  0  0  0  0  0  0  0  0  0  0
   -0.8168    0.8000    0.0000 C   0  0  0  0  0  0  0  0  0  0  0  0
   -0.1023    0.3875    0.0000 C   0  0  0  0  0  0  0  0  0  0  0  0
    1.3266    0.3875    0.0000 C   0  0  0  0  0  0  0  0  0  0  0  0
    1.3266   -0.4375    0.0000 O   0  0  0  0  0  0  0  0  0  0  0  0
    0.6121    1.6250    0.0000 C   0  0  0  0  0  0  0  0  0  0  0  0
    1.3266    1.2125    0.0000 C   0  0  0  0  0  0  0  0  0  0  0  0
    1.3266    2.0375    0.0000 C   0  0  0  0  0  0  0  0  0  0  0  0
    3.1158    2.4986    0.0000 C   0  0  0  0  0  0  0  0  0  0  0  0
    1.8575    2.9443    0.0000 C   0  0  0  0  0  0  0  0  0  0  0  0
    2.3248    2.2644    0.0000 C   0  0  0  0  0  0  0  0  0  0  0  0
    3.1374    3.3233    0.0000 O   0  0  0  0  0  0  0  0  0  0  0  0
    2.3598    3.5988    0.0000 C   0  0  0  0  0  0  0  0  0  0  0  0
    2.0838    4.3644    0.0000 O   0  0  0  0  0  0  0  0  0  0  0  0
    2.1112    1.4675    0.0000 C   0  0  0  0  0  0  0  0  0  0  0  0
    0.6121   -0.0250    0.0000 C   0  0  0  0  0  0  0  0  0  0  0  0
    2.5961    0.8000    0.0000 C   0  0  0  0  0  0  0  0  0  0  0  0
   -2.9602   -1.2625    0.0000 O   0  0  0  0  0  0  0  0  0  0  0  0
   -3.6747   -0.8500    0.0000 C   0  0  0  0  0  0  0  0  0  0  0  0
   -3.6747   -0.0250    0.0000 O   0  0  0  0  0  0  0  0  0  0  0  0
   -4.3891   -1.2625    0.0000 C   0  0  0  0  0  0  0  0  0  0  0  0
   -4.3891    0.3875    0.0000 C   0  0  0  0  0  0  0  0  0  0  0  0
   -4.3891    1.2125    0.0000 C   0  0  0  0  0  0  0  0  0  0  0  0
   -5.1036   -0.8500    0.0000 C   0  0  0  0  0  0  0  0  0  0  0  0
   -5.8181   -1.2625    0.0000 O   0  0  0  0  0  0  0  0  0  0  0  0
   -5.1036   -0.0250    0.0000 C   0  0  0  0  0  0  0  0  0  0  0  0
   -5.8181    0.3875    0.0000 O   0  0  0  0  0  0  0  0  0  0  0  0
   -6.5325   -0.0250    0.0000 C   0  0  0  0  0  0  0  0  0  0  0  0
   -7.2470    0.3875    0.0000 C   0  0  0  0  0  0  0  0  0  0  0  0
   -6.5325   -0.8500    0.0000 O   0  0  0  0  0  0  0  0  0  0  0  0
   -7.2470   -1.2625    0.0000 C   0  0  0  0  0  0  0  0  0  0  0  0
   -7.2470   -2.0875    0.0000 C   0  0  0  0  0  0  0  0  0  0  0  0
   -7.9615   -0.0250    0.0000 C   0  0  0  0  0  0  0  0  0  0  0  0
   -8.6759    0.3875    0.0000 O   0  0  0  0  0  0  0  0  0  0  0  0
   -7.9615   -0.8500    0.0000 C   0  0  0  0  0  0  0  0  0  0  0  0
   -8.6759   -1.2625    0.0000 O   0  0  0  0  0  0  0  0  0  0  0  0
   -9.3904   -0.8500    0.0000 C   0  0  0  0  0  0  0  0  0  0  0  0
  -10.1049   -1.2625    0.0000 C   0  0  0  0  0  0  0  0  0  0  0  0
   -9.3904   -0.0250    0.0000 O   0  0  0  0  0  0  0  0  0  0  0  0
  -10.1049    0.3875    0.0000 C   0  0  0  0  0  0  0  0  0  0  0  0
  -10.1049    1.2125    0.0000 C   0  0  0  0  0  0  0  0  0  0  0  0
  -10.8193   -0.0250    0.0000 C   0  0  0  0  0  0  0  0  0  0  0  0
  -11.5338    0.3875    0.0000 O   0  0  0  0  0  0  0  0  0  0  0  0
  -10.8193   -0.8500    0.0000 C   0  0  0  0  0  0  0  0  0  0  0  0
  -11.5338   -1.2625    0.0000 O   0  0  0  0  0  0  0  0  0  0  0  0
  -12.2483   -0.8500    0.0000 C   0  0  0  0  0  0  0  0  0  0  0  0
  -12.9627   -1.2625    0.0000 C   0  0  0  0  0  0  0  0  0  0  0  0
  -12.2483   -0.0250    0.0000 O   0  0  0  0  0  0  0  0  0  0  0  0
  1  2  1  0
  1 10  1  0
  2  8  1  0
  8  3  1  0
  9  3  1  6
 12 10  1  0
 10  9  1  0
  9  4  1  0
  4  5  1  0
 25  5  1  6
 25 13  1  0
 12 25  1  0
 12  6  1  1
 15  6  1  0
 15 16  1  0
 24 16  1  0
 16 13  1  0
 13  7  1  0
 24 26  1  0
  7 26  1  0
  8 27  1  1
 10 11  1  1
 13 14  1  1
 16 17  1  1
 24 20  1  1
 18 21  1  0
 18 20  1  0
 21 22  1  0
 22 19  1  0
 19 20  2  0
 22 23  2  0
 28 27  1  1
 30 28  1  0
 28 29  1  0
 31 35  1  0
 31 29  1  0
 35 33  1  0
 33 30  1  0
 31 32  1  1
 33 34  1  6
 35 36  1  6
 37 36  1  6
 39 37  1  0
 38 37  1  0
 38 42  1  0
 42 44  1  0
 44 40  1  0
 40 39  1  0
 40 41  1  6
 42 43  1  1
 44 45  1  1
 46 45  1  1
 47 46  1  0
 46 48  1  0
 49 51  1  0
 49 48  1  0
 51 53  1  0
 53 47  1  0
 49 50  1  1
 51 52  1  6
 53 54  1  6
 54 55  1  0
 55 56  1  0
 55 57  2  0
M  END
$$$$
