807
     RDKit          2D

 21 21  0  0  0  0  0  0  0  0999 V2000
    6.6515   -0.3341    0.0000 O   0  0  0  0  0  0  0  0  0  0  0  0
    3.7935    2.1409    0.0000 O   0  0  0  0  0  0  0  0  0  0  0  0
    7.3659    0.9034    0.0000 O   0  0  0  0  0  0  0  0  0  0  0  0
    8.0804   -1.9842    0.0000 N   0  0  0  0  0  0  0  0  0  0  0  0
    5.2224    2.9659    0.0000 N   0  0  0  0  0  0  0  0  0  0  0  0
    7.3659   -1.5717    0.0000 C   0  0  0  0  0  0  0  0  0  0  0  0
    8.0804   -2.8092    0.0000 C   0  0  0  0  0  0  0  0  0  0  0  0
    8.7949   -1.5717    0.0000 C   0  0  0  0  0  0  0  0  0  0  0  0
    7.3659   -0.7466    0.0000 C   0  0  0  0  0  0  0  0  0  0  0  0
    8.7949   -3.2217    0.0000 C   0  0  0  0  0  0  0  0  0  0  0  0
    9.5094   -1.9842    0.0000 C   0  0  0  0  0  0  0  0  0  0  0  0
    5.9370    0.9034    0.0000 C   0  0  0  0  0  0  0  0  0  0  0  0
    6.6515    0.4909    0.0000 C   0  0  0  0  0  0  0  0  0  0  0  0
    4.5080    1.7284    0.0000 C   0  0  0  0  0  0  0  0  0  0  0  0
    5.2224    2.1409    0.0000 C   0  0  0  0  0  0  0  0  0  0  0  0
    5.9370    1.7284    0.0000 C   0  0  0  0  0  0  0  0  0  0  0  0
    5.2224    0.4909    0.0000 C   0  0  0  0  0  0  0  0  0  0  0  0
    3.0791    1.7284    0.0000 C   0  0  0  0  0  0  0  0  0  0  0  0
    4.5080    0.9034    0.0000 C   0  0  0  0  0  0  0  0  0  0  0  0
    2.3645    2.1409    0.0000 C   0  0  0  0  0  0  0  0  0  0  0  0
    1.6500    1.7284    0.0000 C   0  0  0  0  0  0  0  0  0  0  0  0
  1  9  1  0
  1 13  1  0
  2 14  1  0
  2 18  1  0
  3 13  2  0
  4  6  1  0
  4  7  1  0
  4  8  1  0
  5 15  1  0
  6  9  1  0
  7 10  1  0
  8 11  1  0
 12 13  1  0
 12 16  2  0
 12 17  1  0
 14 15  2  0
 14 19  1  0
 15 16  1  0
 17 19  2  0
 18 20  1  0
 20 21  1  0
M  END
$$$$
