871
     RDKit          2D

 16 16  0  0  1  0  0  0  0  0999 V2000
    2.3645    0.7235    0.0000 O   0  0  0  0  0  0  0  0  0  0  0  0
    1.6500   -2.1640    0.0000 O   0  0  0  0  0  0  0  0  0  0  0  0
    4.5080   -2.1640    0.0000 O   0  0  0  0  0  0  0  0  0  0  0  0
    3.7935    1.5486    0.0000 N   0  0  0  0  0  0  0  0  0  0  0  0
    4.5080    1.9611    0.0000 C   0  0  0  0  0  0  0  0  0  0  0  0
    3.7935    0.7235    0.0000 C   0  0  0  0  0  0  0  0  0  0  0  0
    3.0791    0.3110    0.0000 C   0  0  0  0  0  0  0  0  0  0  0  0
    5.2224    2.3736    0.0000 C   0  0  0  0  0  0  0  0  0  0  0  0
    4.0955    2.6755    0.0000 C   0  0  0  0  0  0  0  0  0  0  0  0
    4.9205    1.2466    0.0000 C   0  0  0  0  0  0  0  0  0  0  0  0
    3.0791   -0.5140    0.0000 C   0  0  0  0  0  0  0  0  0  0  0  0
    3.7935   -0.9265    0.0000 C   0  0  0  0  0  0  0  0  0  0  0  0
    2.3645   -0.9265    0.0000 C   0  0  0  0  0  0  0  0  0  0  0  0
    2.3645   -1.7515    0.0000 C   0  0  0  0  0  0  0  0  0  0  0  0
    3.7935   -1.7515    0.0000 C   0  0  0  0  0  0  0  0  0  0  0  0
    3.0791   -2.1640    0.0000 C   0  0  0  0  0  0  0  0  0  0  0  0
  1  7  1  0
  2 14  1  0
  3 15  1  0
  4  5  1  0
  4  6  1  0
  5  8  1  0
  5  9  1  0
  5 10  1  0
  6  7  1  0
  7 11  1  0
 11 12  2  0
 11 13  1  0
 12 15  1  0
 13 14  2  0
 14 16  1  0
 15 16  2  0
M  END
$$$$
