420
     RDKit          2D

 20 22  0  0  0  0  0  0  0  0999 V2000
    3.6958   -2.3626    0.0000 S   0  0  0  0  0  0  0  0  0  0  0  0
    3.6958   -0.7784    0.0000 N   0  0  0  0  0  0  0  0  0  0  0  0
    5.0678    1.5979    0.0000 N   0  0  0  0  0  0  0  0  0  0  0  0
    3.6958    0.0137    0.0000 C   0  0  0  0  0  0  0  0  0  0  0  0
    4.3819    0.4097    0.0000 C   0  0  0  0  0  0  0  0  0  0  0  0
    4.3819    1.2018    0.0000 C   0  0  0  0  0  0  0  0  0  0  0  0
    4.3819   -1.1744    0.0000 C   0  0  0  0  0  0  0  0  0  0  0  0
    3.0099   -1.1744    0.0000 C   0  0  0  0  0  0  0  0  0  0  0  0
    4.3819   -1.9665    0.0000 C   0  0  0  0  0  0  0  0  0  0  0  0
    3.0099   -1.9665    0.0000 C   0  0  0  0  0  0  0  0  0  0  0  0
    5.0899   -0.7508    0.0000 C   0  0  0  0  0  0  0  0  0  0  0  0
    2.3019   -0.7508    0.0000 C   0  0  0  0  0  0  0  0  0  0  0  0
    5.0899   -2.3899    0.0000 C   0  0  0  0  0  0  0  0  0  0  0  0
    2.3019   -2.3899    0.0000 C   0  0  0  0  0  0  0  0  0  0  0  0
    5.7537    1.2018    0.0000 C   0  0  0  0  0  0  0  0  0  0  0  0
    5.0678    2.3899    0.0000 C   0  0  0  0  0  0  0  0  0  0  0  0
    5.8076   -1.1579    0.0000 C   0  0  0  0  0  0  0  0  0  0  0  0
    1.5842   -1.1579    0.0000 C   0  0  0  0  0  0  0  0  0  0  0  0
    5.8076   -1.9830    0.0000 C   0  0  0  0  0  0  0  0  0  0  0  0
    1.5842   -1.9830    0.0000 C   0  0  0  0  0  0  0  0  0  0  0  0
  1  9  1  0
  1 10  1  0
  2  4  1  0
  2  7  1  0
  2  8  1  0
  3  6  1  0
  3 15  1  0
  3 16  1  0
  4  5  1  0
  5  6  1  0
  7  9  2  0
  7 11  1  0
  8 10  2  0
  8 12  1  0
  9 13  1  0
 10 14  1  0
 11 17  2  0
 12 18  2  0
 13 19  2  0
 14 20  2  0
 17 19  1  0
 18 20  1  0
M  END
$$$$
