117
     RDKit          2D

 11 11  0  0  1  0  0  0  0  0999 V2000
    5.7803    0.3693    0.0000 O   0  0  0  0  0  0  0  0  0  0  0  0
    5.3388   -0.9898    0.0000 O   0  0  0  0  0  0  0  0  0  0  0  0
    2.3174   -0.7099    0.0000 N   0  0  0  0  0  0  0  0  0  0  0  0
    4.2111    0.8791    0.0000 N   0  0  0  0  0  0  0  0  0  0  0  0
    1.9049    0.5597    0.0000 N   0  0  0  0  0  0  0  0  0  0  0  0
    3.7695   -0.4799    0.0000 C   0  0  0  0  0  0  0  0  0  0  0  0
    4.3826    0.0721    0.0000 C   0  0  0  0  0  0  0  0  0  0  0  0
    2.9849   -0.2250    0.0000 C   0  0  0  0  0  0  0  0  0  0  0  0
    5.1672   -0.1828    0.0000 C   0  0  0  0  0  0  0  0  0  0  0  0
    2.7299    0.5597    0.0000 C   0  0  0  0  0  0  0  0  0  0  0  0
    1.6500   -0.2250    0.0000 C   0  0  0  0  0  0  0  0  0  0  0  0
  1  9  1  0
  2  9  2  0
  3  8  1  0
  3 11  1  0
  7  4  1  6
  5 10  1  0
  5 11  2  0
  6  7  1  0
  6  8  1  0
  7  9  1  0
  8 10  2  0
M  END
$$$$
