746
     RDKit          2D

 39 38  0  0  0  0  0  0  0  0999 V2000
   14.2380   -1.0312    0.0000 O   0  0  0  0  0  0  0  0  0  0  0  0
    6.3793    1.0312    0.0000 O   0  0  0  0  0  0  0  0  0  0  0  0
   14.9524    1.0312    0.0000 O   0  0  0  0  0  0  0  0  0  0  0  0
    9.2371    1.0312    0.0000 O   0  0  0  0  0  0  0  0  0  0  0  0
   17.0957   -1.0312    0.0000 O   0  0  0  0  0  0  0  0  0  0  0  0
   22.0966    1.0312    0.0000 O   0  0  0  0  0  0  0  0  0  0  0  0
    7.0938   -1.0312    0.0000 O   0  0  0  0  0  0  0  0  0  0  0  0
   22.8111   -1.0312    0.0000 O   0  0  0  0  0  0  0  0  0  0  0  0
   14.2380   -0.2063    0.0000 N   0  0  0  0  0  0  0  0  0  0  0  0
    9.9515   -0.2063    0.0000 N   0  0  0  0  0  0  0  0  0  0  0  0
   17.8101    0.2063    0.0000 N   0  0  0  0  0  0  0  0  0  0  0  0
    6.3793    0.2063    0.0000 N   0  0  0  0  0  0  0  0  0  0  0  0
   22.0966    0.2063    0.0000 N   0  0  0  0  0  0  0  0  0  0  0  0
    2.0928    0.2063    0.0000 N   0  0  0  0  0  0  0  0  0  0  0  0
   12.0947    0.2063    0.0000 C   0  0  0  0  0  0  0  0  0  0  0  0
   12.8091   -0.2063    0.0000 C   0  0  0  0  0  0  0  0  0  0  0  0
   11.3804   -0.2063    0.0000 C   0  0  0  0  0  0  0  0  0  0  0  0
   19.9534   -0.2063    0.0000 C   0  0  0  0  0  0  0  0  0  0  0  0
   13.5236    0.2063    0.0000 C   0  0  0  0  0  0  0  0  0  0  0  0
   19.2389    0.2063    0.0000 C   0  0  0  0  0  0  0  0  0  0  0  0
   10.6658    0.2063    0.0000 C   0  0  0  0  0  0  0  0  0  0  0  0
   20.6678    0.2063    0.0000 C   0  0  0  0  0  0  0  0  0  0  0  0
    4.9504    0.2063    0.0000 C   0  0  0  0  0  0  0  0  0  0  0  0
    4.2361   -0.2063    0.0000 C   0  0  0  0  0  0  0  0  0  0  0  0
   18.5245   -0.2063    0.0000 C   0  0  0  0  0  0  0  0  0  0  0  0
    5.6650   -0.2063    0.0000 C   0  0  0  0  0  0  0  0  0  0  0  0
    3.5217    0.2063    0.0000 C   0  0  0  0  0  0  0  0  0  0  0  0
   21.3822   -0.2063    0.0000 C   0  0  0  0  0  0  0  0  0  0  0  0
   15.6668   -0.2063    0.0000 C   0  0  0  0  0  0  0  0  0  0  0  0
   16.3812    0.2063    0.0000 C   0  0  0  0  0  0  0  0  0  0  0  0
    8.5226   -0.2063    0.0000 C   0  0  0  0  0  0  0  0  0  0  0  0
    7.8082    0.2063    0.0000 C   0  0  0  0  0  0  0  0  0  0  0  0
   14.9524    0.2063    0.0000 C   0  0  0  0  0  0  0  0  0  0  0  0
    9.2371    0.2063    0.0000 C   0  0  0  0  0  0  0  0  0  0  0  0
   17.0957   -0.2063    0.0000 C   0  0  0  0  0  0  0  0  0  0  0  0
    2.8072   -0.2063    0.0000 C   0  0  0  0  0  0  0  0  0  0  0  0
    7.0938   -0.2063    0.0000 C   0  0  0  0  0  0  0  0  0  0  0  0
   22.8111   -0.2063    0.0000 C   0  0  0  0  0  0  0  0  0  0  0  0
   23.5255    0.2063    0.0000 C   0  0  0  0  0  0  0  0  0  0  0  0
  1  9  1  0
  2 12  1  0
  3 33  2  0
  4 34  2  0
  5 35  2  0
  6 13  1  0
  7 37  2  0
  8 38  2  0
  9 19  1  0
  9 33  1  0
 10 21  1  0
 10 34  1  0
 11 25  1  0
 11 35  1  0
 12 26  1  0
 12 37  1  0
 13 28  1  0
 13 38  1  0
 14 36  1  0
 15 16  1  0
 15 17  1  0
 16 19  1  0
 17 21  1  0
 18 20  1  0
 18 22  1  0
 20 25  1  0
 22 28  1  0
 23 24  1  0
 23 26  1  0
 24 27  1  0
 27 36  1  0
 29 30  1  0
 29 33  1  0
 30 35  1  0
 31 32  1  0
 31 34  1  0
 32 37  1  0
 38 39  1  0
M  END
$$$$
