[NO NAME]
     RDKit          2D

102107  0  0  1  0  0  0  0  0999 V2000
    2.6200   -4.4093    0.0000 C   0  0  0  0  0  0  0  0  0  0  0  0
    3.3275   -3.9848    0.0000 C   0  0  0  0  0  0  0  0  0  0  0  0
    1.9127   -3.9848    0.0000 C   0  0  0  0  0  0  0  0  0  0  0  0
    3.3275   -3.1360    0.0000 C   0  0  0  0  0  0  0  0  0  0  0  0
    1.9127   -3.1360    0.0000 C   0  0  0  0  0  0  0  0  0  0  0  0
    2.6200   -2.7115    0.0000 C   0  0  0  0  0  0  0  0  0  0  0  0
    2.6200   -5.1875    0.0000 C   0  0  0  0  0  0  0  0  0  0  0  0
    3.3275   -5.6120    0.0000 C   0  0  0  0  0  0  0  0  0  0  0  0
    4.0350   -4.4093    0.0000 C   0  0  0  0  0  0  0  0  0  0  0  0
    4.0350   -5.1875    0.0000 C   0  0  0  0  0  0  0  0  0  0  0  0
    4.0350   -6.8146    0.0000 C   0  0  0  0  0  0  0  0  0  0  0  0
    4.0350   -7.6636    0.0000 N   0  0  0  0  0  0  0  0  0  0  0  0
    3.3275   -6.3901    0.0000 C   0  0  0  0  0  0  0  0  0  0  0  0
    5.4498   -6.8146    0.0000 N   0  0  0  0  0  0  0  0  0  0  0  0
    4.7424   -6.3901    0.0000 C   0  0  0  0  0  0  0  0  0  0  0  0
    6.2280   -6.3901    0.0000 C   0  0  0  0  0  0  0  0  0  0  0  0
    6.8647   -6.8146    0.0000 C   0  0  0  0  0  0  0  0  0  0  0  0
    6.8647   -7.6636    0.0000 O   0  0  0  0  0  0  0  0  0  0  0  0
    6.2280   -5.6120    0.0000 C   0  0  0  0  0  0  0  0  0  0  0  0
    6.8647   -5.1875    0.0000 C   0  0  0  0  0  0  0  0  0  0  0  0
    7.5721   -6.3901    0.0000 N   0  0  0  0  0  0  0  0  0  0  0  0
    7.5721   -5.6120    0.0000 C   0  0  0  0  0  0  0  0  0  0  0  0
    6.8647   -4.4093    0.0000 C   0  0  0  0  0  0  0  0  0  0  0  0
    7.5721   -3.9848    0.0000 C   0  0  0  0  0  0  0  0  0  0  0  0
    8.3503   -5.1875    0.0000 C   0  0  0  0  0  0  0  0  0  0  0  0
    8.3503   -4.4093    0.0000 C   0  0  0  0  0  0  0  0  0  0  0  0
    8.3503   -6.8146    0.0000 C   0  0  0  0  0  0  0  0  0  0  0  0
    8.3503   -7.6636    0.0000 C   0  0  0  0  0  0  0  0  0  0  0  0
    8.9870   -6.3901    0.0000 C   0  0  0  0  0  0  0  0  0  0  0  0
    9.6945   -6.8146    0.0000 N   0  0  0  0  0  0  0  0  0  0  0  0
    8.9870   -8.0880    0.0000 C   0  0  0  0  0  0  0  0  0  0  0  0
    9.6945   -7.6636    0.0000 C   0  0  0  0  0  0  0  0  0  0  0  0
    8.9870   -8.8662    0.0000 C   0  0  0  0  0  0  0  0  0  0  0  0
    9.6945   -9.2906    0.0000 N   0  0  0  0  0  0  0  0  0  0  0  0
   10.4726   -8.0880    0.0000 C   0  0  0  0  0  0  0  0  0  0  0  0
   10.4726   -8.8662    0.0000 C   0  0  0  0  0  0  0  0  0  0  0  0
   10.4726   -6.3901    0.0000 C   0  0  0  0  0  0  0  0  0  0  0  0
   11.1093   -6.8146    0.0000 C   0  0  0  0  0  0  0  0  0  0  0  0
   11.1093   -7.6636    0.0000 O   0  0  0  0  0  0  0  0  0  0  0  0
   11.8168   -6.3901    0.0000 N   0  0  0  0  0  0  0  0  0  0  0  0
   12.5242   -6.8146    0.0000 C   0  0  0  0  0  0  0  0  0  0  0  0
   12.5242   -7.6636    0.0000 C   0  0  0  0  0  0  0  0  0  0  0  0
   13.3024   -6.3901    0.0000 C   0  0  0  0  0  0  0  0  0  0  0  0
   13.9391   -6.8146    0.0000 N   0  0  0  0  0  0  0  0  0  0  0  0
   13.3024   -8.0880    0.0000 C   0  0  0  0  0  0  0  0  0  0  0  0
    4.7424   -5.6120    0.0000 O   0  0  0  0  0  0  0  0  0  0  0  0
    8.9870   -3.9848    0.0000 Cl  0  0  0  0  0  0  0  0  0  0  0  0
    8.9870   -5.6120    0.0000 O   0  0  0  0  0  0  0  0  0  0  0  0
   10.4726   -5.6120    0.0000 C   0  0  0  0  0  0  0  0  0  0  0  0
   11.1093   -5.1875    0.0000 O   0  0  0  0  0  0  0  0  0  0  0  0
   13.3024   -5.6120    0.0000 O   0  0  0  0  0  0  0  0  0  0  0  0
   14.7173   -8.0880    0.0000 C   0  0  0  0  0  0  0  0  0  0  0  0
   14.7173   -8.8662    0.0000 C   0  0  0  0  0  0  0  0  0  0  0  0
   13.9391   -7.6636    0.0000 C   0  0  0  0  0  0  0  0  0  0  0  0
   13.9391   -9.2906    0.0000 C   0  0  0  0  0  0  0  0  0  0  0  0
   13.3024   -8.8662    0.0000 C   0  0  0  0  0  0  0  0  0  0  0  0
   15.4247   -9.2906    0.0000 O   0  0  0  0  0  0  0  0  0  0  0  0
   14.7173   -6.3901    0.0000 C   0  0  0  0  0  0  0  0  0  0  0  0
   15.4247   -6.8146    0.0000 C   0  0  0  0  0  0  0  0  0  0  0  0
   15.4247   -7.6636    0.0000 O   0  0  0  0  0  0  0  0  0  0  0  0
   16.1321   -6.3901    0.0000 N   0  0  0  0  0  0  0  0  0  0  0  0
   16.8396   -6.8146    0.0000 C   0  0  0  0  0  0  0  0  0  0  0  0
   16.8396   -7.6636    0.0000 C   0  0  0  0  0  0  0  0  0  0  0  0
   17.5470   -6.3901    0.0000 C   0  0  0  0  0  0  0  0  0  0  0  0
   18.2544   -6.8146    0.0000 N   0  0  0  0  0  0  0  0  0  0  0  0
   18.9619   -6.3901    0.0000 C   0  0  0  0  0  0  0  0  0  0  0  0
   19.6693   -6.8146    0.0000 C   0  0  0  0  0  0  0  0  0  0  0  0
   19.6693   -7.6636    0.0000 O   0  0  0  0  0  0  0  0  0  0  0  0
   20.3767   -6.3901    0.0000 N   0  0  0  0  0  0  0  0  0  0  0  0
   20.3060   -8.1588    0.0000 O   0  0  0  0  0  0  0  0  0  0  0  0
   21.0134   -7.7343    0.0000 C   0  0  0  0  0  0  0  0  0  0  0  0
   17.5470   -8.0880    0.0000 C   0  0  0  0  0  0  0  0  0  0  0  0
   14.7173   -5.6120    0.0000 C   0  0  0  0  0  0  0  0  0  0  0  0
   15.4247   -5.1875    0.0000 C   0  0  0  0  0  0  0  0  0  0  0  0
   15.4247   -4.4093    0.0000 C   0  0  0  0  0  0  0  0  0  0  0  0
   16.1321   -3.9848    0.0000 N   0  0  0  0  0  0  0  0  0  0  0  0
   16.1321   -3.1360    0.0000 C   0  0  0  0  0  0  0  0  0  0  0  0
   15.4247   -2.7115    0.0000 O   0  0  0  0  0  0  0  0  0  0  0  0
   16.8396   -2.7115    0.0000 N   0  0  0  0  0  0  0  0  0  0  0  0
   17.5470   -5.6120    0.0000 O   0  0  0  0  0  0  0  0  0  0  0  0
   18.9619   -5.6120    0.0000 C   0  0  0  0  0  0  0  0  0  0  0  0
   19.6693   -5.1875    0.0000 C   0  0  0  0  0  0  0  0  0  0  0  0
   19.6693   -4.4093    0.0000 C   0  0  0  0  0  0  0  0  0  0  0  0
   20.3767   -3.9848    0.0000 N   0  0  0  0  0  0  0  0  0  0  0  0
   20.3767   -3.1360    0.0000 C   0  0  0  0  0  0  0  0  0  0  0  0
   19.6693   -2.7115    0.0000 N   0  0  0  0  0  0  0  0  0  0  0  0
   21.0842   -2.7115    0.0000 N   0  0  0  0  0  0  0  0  0  0  0  0
   21.0134   -6.8853    0.0000 C   0  0  0  0  0  0  0  0  0  0  0  0
   20.5890   -5.6120    0.0000 C   0  0  0  0  0  0  0  0  0  0  0  0
   21.6502   -6.3901    0.0000 C   0  0  0  0  0  0  0  0  0  0  0  0
   21.4379   -5.6120    0.0000 C   0  0  0  0  0  0  0  0  0  0  0  0
   21.7209   -8.1588    0.0000 N   0  0  0  0  0  0  0  0  0  0  0  0
   21.7209   -8.9369    0.0000 C   0  0  0  0  0  0  0  0  0  0  0  0
   22.4283   -9.3614    0.0000 C   0  0  0  0  0  0  0  0  0  0  0  0
   21.0134   -9.3614    0.0000 C   0  0  0  0  0  0  0  0  0  0  0  0
   23.1357   -8.9369    0.0000 O   0  0  0  0  0  0  0  0  0  0  0  0
   22.4283  -10.2103    0.0000 N   0  0  0  0  0  0  0  0  0  0  0  0
   17.5470   -8.8662    0.0000 C   0  0  0  0  0  0  0  0  0  0  0  0
   18.2544   -7.6636    0.0000 C   0  0  0  0  0  0  0  0  0  0  0  0
    4.7424   -8.0880    0.0000 C   0  0  0  0  0  0  0  0  0  0  0  0
    4.7424   -8.8662    0.0000 O   0  0  0  0  0  0  0  0  0  0  0  0
    5.4498   -7.6636    0.0000 C   0  0  0  0  0  0  0  0  0  0  0  0
  3  1  2  0
  7  1  1  0
  2  1  1  0
  4  2  2  0
  9  2  1  0
  5  3  1  0
  6  4  1  0
  6  5  2  0
  8  7  2  0
 13  8  1  0
 10  8  1  0
 10  9  2  0
 11 13  1  6
 15 11  1  0
 11 12  1  0
100 12  1  0
 15 14  1  0
 16 14  1  0
 46 15  2  0
 16 19  1  6
 17 16  1  0
 21 17  1  0
 18 17  2  0
 20 19  1  0
 23 20  1  0
 22 20  2  0
 27 21  1  0
 25 22  1  0
 24 23  2  0
 26 24  1  0
 26 25  2  0
 47 26  1  0
 29 27  1  0
 27 28  1  1
 31 28  1  0
 30 29  1  0
 48 29  2  0
 37 30  1  0
 33 31  1  0
 32 31  2  0
 35 32  1  0
 34 33  2  0
 36 34  1  0
 36 35  2  0
 38 37  1  0
 37 49  1  1
 40 38  1  0
 39 38  2  0
 41 40  1  0
 43 41  1  0
 41 42  1  6
 45 42  1  0
 44 43  1  0
 51 43  2  0
 58 44  1  0
 56 45  2  0
 54 45  1  0
 50 49  1  0
 54 52  2  0
 53 52  1  0
 55 53  2  0
 57 53  1  0
 56 55  1  0
 59 58  1  0
 58 73  1  6
 61 59  1  0
 60 59  2  0
 62 61  1  0
 64 62  1  0
 62 63  1  6
 72 63  1  0
 65 64  1  0
 80 64  2  0
 66 65  1  0
 67 66  1  0
 66 81  1  1
 69 67  1  0
 68 67  2  0
 88 69  1  0
 89 69  1  0
 71 70  2  0
 88 71  1  1
 92 71  1  0
 98 72  1  0
 72 99  1  0
 74 73  1  0
 75 74  1  0
 76 75  1  0
 77 76  1  0
 78 77  2  0
 79 77  1  0
 82 81  1  0
 83 82  1  0
 84 83  1  0
 85 84  1  0
 86 85  2  3
 87 85  1  0
 90 88  1  0
 91 89  1  0
 91 90  1  0
 93 92  1  0
 94 93  1  0
 93 95  1  1
 96 94  2  0
 97 94  1  0
101100  2  0
102100  1  0
M  END
$$$$
