285
     RDKit          2D

 20 21  0  0  1  0  0  0  0  0999 V2000
    2.1615    0.1106    0.0000 O   0  0  0  0  0  0  0  0  0  0  0  0
    6.2866    0.1106    0.0000 O   0  0  0  0  0  0  0  0  0  0  0  0
    2.9866    1.5395    0.0000 N   0  0  0  0  0  0  0  0  0  0  0  0
    2.5741   -0.6040    0.0000 C   0  0  0  0  0  0  0  0  0  0  0  0
    2.9866    0.1106    0.0000 C   0  0  0  0  0  0  0  0  0  0  0  0
    1.8596   -1.0165    0.0000 C   0  0  0  0  0  0  0  0  0  0  0  0
    3.2885   -1.0165    0.0000 C   0  0  0  0  0  0  0  0  0  0  0  0
    1.8596   -1.8415    0.0000 C   0  0  0  0  0  0  0  0  0  0  0  0
    3.2885   -1.8415    0.0000 C   0  0  0  0  0  0  0  0  0  0  0  0
    2.5741   -2.2540    0.0000 C   0  0  0  0  0  0  0  0  0  0  0  0
    2.5741    0.8250    0.0000 C   0  0  0  0  0  0  0  0  0  0  0  0
    3.8116    0.1106    0.0000 C   0  0  0  0  0  0  0  0  0  0  0  0
    4.2241    0.8250    0.0000 C   0  0  0  0  0  0  0  0  0  0  0  0
    4.2241   -0.6040    0.0000 C   0  0  0  0  0  0  0  0  0  0  0  0
    2.5741    2.2540    0.0000 C   0  0  0  0  0  0  0  0  0  0  0  0
    3.8116    1.5395    0.0000 C   0  0  0  0  0  0  0  0  0  0  0  0
    5.0491    0.8250    0.0000 C   0  0  0  0  0  0  0  0  0  0  0  0
    5.0491   -0.6040    0.0000 C   0  0  0  0  0  0  0  0  0  0  0  0
    5.4616    0.1106    0.0000 C   0  0  0  0  0  0  0  0  0  0  0  0
    6.6991    0.8250    0.0000 C   0  0  0  0  0  0  0  0  0  0  0  0
  1  4  1  0
  2 19  1  0
  2 20  1  0
  3 11  1  0
  3 15  1  0
  3 16  1  0
  4  5  1  0
  4  6  1  0
  4  7  1  0
  5 11  1  0
  5 12  1  0
  6  8  1  0
  7  9  1  0
  8 10  1  0
  9 10  1  0
 12 13  2  0
 12 14  1  0
 13 17  1  0
 14 18  2  0
 17 19  2  0
 18 19  1  0
M  END
$$$$
