
     RDKit          2D

 72 75  0  0  0  0  0  0  0  0999 V2000
   13.8283   -8.2269    0.0000 N   0  0  0  0  0  0  0  0  0  0  0  0
   13.1542   -7.8673    0.0000 C   0  0  0  0  0  0  0  0  0  0  0  0
   12.4352   -8.2269    0.0000 C   0  0  0  0  0  0  0  0  0  0  0  0
   11.7161   -7.8673    0.0000 N   0  0  0  0  0  0  0  0  0  0  0  0
   10.9970   -8.2269    0.0000 C   0  0  0  0  0  0  0  0  0  0  0  0
   10.2780   -7.8673    0.0000 C   0  0  0  0  0  0  0  0  0  0  0  0
    9.5589   -8.2269    0.0000 N   0  0  0  0  0  0  0  0  0  0  0  0
    8.8848   -7.8673    0.0000 C   0  0  0  0  0  0  0  0  0  0  0  0
    8.1658   -8.2269    0.0000 O   0  0  0  0  0  0  0  0  0  0  0  0
   13.1542   -7.0135    0.0000 O   0  0  0  0  0  0  0  0  0  0  0  0
   10.9970   -9.0807    0.0000 O   0  0  0  0  0  0  0  0  0  0  0  0
   10.2780   -7.0135    0.0000 C   0  0  0  0  0  0  0  0  0  0  0  0
   10.9970   -6.6089    0.0000 C   0  0  0  0  0  0  0  0  0  0  0  0
   10.9970   -5.7550    0.0000 C   0  0  0  0  0  0  0  0  0  0  0  0
   11.6712   -5.3506    0.0000 C   0  0  0  0  0  0  0  0  0  0  0  0
    8.8848   -7.0135    0.0000 C   0  0  0  0  0  0  0  0  0  0  0  0
    9.5140   -6.5191    0.0000 C   0  0  0  0  0  0  0  0  0  0  0  0
    8.2107   -6.5191    0.0000 N   0  0  0  0  0  0  0  0  0  0  0  0
    9.2893   -5.7550    0.0000 C   0  0  0  0  0  0  0  0  0  0  0  0
    8.4354   -5.7550    0.0000 C   0  0  0  0  0  0  0  0  0  0  0  0
    7.4916   -6.9236    0.0000 C   0  0  0  0  0  0  0  0  0  0  0  0
    6.7725   -6.5191    0.0000 C   0  0  0  0  0  0  0  0  0  0  0  0
    6.0535   -6.9236    0.0000 N   0  0  0  0  0  0  0  0  0  0  0  0
    5.3344   -6.5191    0.0000 C   0  0  0  0  0  0  0  0  0  0  0  0
    4.6603   -6.9236    0.0000 C   0  0  0  0  0  0  0  0  0  0  0  0
    3.9413   -6.5191    0.0000 N   0  0  0  0  0  0  0  0  0  0  0  0
    7.4916   -7.7774    0.0000 O   0  0  0  0  0  0  0  0  0  0  0  0
    6.7725   -5.7101    0.0000 C   0  0  0  0  0  0  0  0  0  0  0  0
    7.4916   -5.3057    0.0000 S   0  0  0  0  0  0  0  0  0  0  0  0
    7.4916   -4.4967    0.0000 S   0  0  0  0  0  0  0  0  0  0  0  0
    5.3344   -5.7101    0.0000 O   0  0  0  0  0  0  0  0  0  0  0  0
    4.6603   -7.7774    0.0000 C   0  0  0  0  0  0  0  0  0  0  0  0
    3.9413   -8.1819    0.0000 C   0  0  0  0  0  0  0  0  0  0  0  0
    3.9413   -8.9909    0.0000 O   0  0  0  0  0  0  0  0  0  0  0  0
    3.2222   -7.7774    0.0000 N   0  0  0  0  0  0  0  0  0  0  0  0
    3.9413   -5.7101    0.0000 C   0  0  0  0  0  0  0  0  0  0  0  0
    3.2222   -5.3057    0.0000 C   0  0  0  0  0  0  0  0  0  0  0  0
    4.6603   -5.3057    0.0000 O   0  0  0  0  0  0  0  0  0  0  0  0
    2.5031   -5.7101    0.0000 C   0  0  0  0  0  0  0  0  0  0  0  0
    2.4754   -6.5347    0.0000 C   0  0  0  0  0  0  0  0  0  0  0  0
    1.7563   -6.9392    0.0000 C   0  0  0  0  0  0  0  0  0  0  0  0
    1.0373   -6.5347    0.0000 N   0  0  0  0  0  0  0  0  0  0  0  0
    1.7563   -7.7931    0.0000 O   0  0  0  0  0  0  0  0  0  0  0  0
    3.2222   -4.4967    0.0000 N   0  0  0  0  0  0  0  0  0  0  0  0
    2.5031   -3.2384    0.0000 C   0  0  0  0  0  0  0  0  0  0  0  0
    2.5031   -4.0922    0.0000 C   0  0  0  0  0  0  0  0  0  0  0  0
    3.2222   -2.8339    0.0000 C   0  0  0  0  0  0  0  0  0  0  0  0
    3.9413   -3.2384    0.0000 C   0  0  0  0  0  0  0  0  0  0  0  0
    3.9413   -4.0922    0.0000 C   0  0  0  0  0  0  0  0  0  0  0  0
    1.0650   -3.2384    0.0000 C   0  0  0  0  0  0  0  0  0  0  0  0
    1.0650   -4.0922    0.0000 C   0  0  0  0  0  0  0  0  0  0  0  0
    1.7841   -2.8339    0.0000 C   0  0  0  0  0  0  0  0  0  0  0  0
    1.7841   -4.4967    0.0000 C   0  0  0  0  0  0  0  0  0  0  0  0
    6.7725   -3.2384    0.0000 N   0  0  0  0  0  0  0  0  0  0  0  0
    7.4916   -2.8339    0.0000 C   0  0  0  0  0  0  0  0  0  0  0  0
    8.2107   -3.2384    0.0000 C   0  0  0  0  0  0  0  0  0  0  0  0
    8.2107   -4.0473    0.0000 C   0  0  0  0  0  0  0  0  0  0  0  0
    5.3794   -3.2384    0.0000 C   0  0  0  0  0  0  0  0  0  0  0  0
    5.3794   -4.0473    0.0000 O   0  0  0  0  0  0  0  0  0  0  0  0
    6.0535   -2.8339    0.0000 C   0  0  0  0  0  0  0  0  0  0  0  0
    4.6603   -2.8339    0.0000 N   0  0  0  0  0  0  0  0  0  0  0  0
    4.6603   -4.4967    0.0000 O   0  0  0  0  0  0  0  0  0  0  0  0
    6.0535   -1.9800    0.0000 C   0  0  0  0  0  0  0  0  0  0  0  0
    4.6603   -1.9800    0.0000 C   0  0  0  0  0  0  0  0  0  0  0  0
    5.3794   -1.5756    0.0000 C   0  0  0  0  0  0  0  0  0  0  0  0
    3.9413   -1.5756    0.0000 C   0  0  0  0  0  0  0  0  0  0  0  0
    3.9413   -0.7666    0.0000 C   0  0  0  0  0  0  0  0  0  0  0  0
    5.3794   -0.7666    0.0000 C   0  0  0  0  0  0  0  0  0  0  0  0
    4.6603   -0.3621    0.0000 C   0  0  0  0  0  0  0  0  0  0  0  0
    8.8848   -2.8339    0.0000 N   0  0  0  0  0  0  0  0  0  0  0  0
    7.4916   -1.9800    0.0000 O   0  0  0  0  0  0  0  0  0  0  0  0
   11.6712   -4.5417    0.0000 N   0  0  0  0  0  0  0  0  0  0  0  0
  2  1  1  0
  3  2  1  0
 10  2  2  0
  4  3  1  0
  5  4  1  0
  6  5  1  0
 11  5  2  0
  7  6  1  0
  6 12  1  1
  8  7  1  0
  9  8  2  0
 16  8  1  1
 13 12  1  0
 14 13  1  0
 15 14  1  0
 72 15  1  0
 17 16  1  0
 18 16  1  0
 19 17  1  0
 20 18  1  0
 21 18  1  0
 20 19  1  0
 22 21  1  1
 27 21  2  0
 23 22  1  0
 28 22  1  0
 24 23  1  0
 25 24  1  0
 31 24  2  0
 26 25  1  0
 25 32  1  6
 36 26  1  0
 29 28  1  0
 30 29  1  0
 57 30  1  0
 33 32  1  0
 34 33  2  0
 35 33  1  0
 37 36  1  0
 38 36  2  0
 37 39  1  6
 44 37  1  0
 40 39  1  0
 41 40  1  0
 42 41  1  0
 43 41  2  0
 49 44  1  0
 47 45  1  0
 52 45  1  0
 46 45  2  0
 53 46  1  0
 48 47  1  6
 61 48  1  0
 49 48  1  0
 62 49  2  0
 51 50  1  0
 52 50  2  0
 53 51  2  0
 55 54  1  0
 60 54  1  0
 56 55  1  0
 71 55  2  0
 57 56  1  0
 56 70  1  1
 59 58  2  0
 60 58  1  0
 61 58  1  0
 60 63  1  6
 65 63  1  0
 66 64  2  0
 65 64  1  0
 68 65  2  0
 67 66  1  0
 69 67  2  0
 69 68  1  0
M  END
$$$$
