680
     RDKit          2D

 30 33  0  0  0  0  0  0  0  0999 V2000
    4.5073   -2.6666    0.0000 S   0  0  0  0  0  0  0  0  0  0  0  0
    1.6498    2.2827    0.0000 O   0  0  0  0  0  0  0  0  0  0  0  0
    5.2216    0.2205    0.0000 O   0  0  0  0  0  0  0  0  0  0  0  0
    8.8480   -0.9914    0.0000 O   0  0  0  0  0  0  0  0  0  0  0  0
    8.1384   -2.2315    0.0000 O   0  0  0  0  0  0  0  0  0  0  0  0
    3.0786    1.4578    0.0000 N   0  0  0  0  0  0  0  0  0  0  0  0
    4.5073   -1.0169    0.0000 N   0  0  0  0  0  0  0  0  0  0  0  0
    7.4192   -0.9969    0.0000 N   0  0  0  0  0  0  0  0  0  0  0  0
    3.7929    1.0454    0.0000 C   0  0  0  0  0  0  0  0  0  0  0  0
    3.0786    2.2827    0.0000 C   0  0  0  0  0  0  0  0  0  0  0  0
    2.3641    1.0454    0.0000 C   0  0  0  0  0  0  0  0  0  0  0  0
    3.7929    0.2205    0.0000 C   0  0  0  0  0  0  0  0  0  0  0  0
    2.3641    2.6951    0.0000 C   0  0  0  0  0  0  0  0  0  0  0  0
    1.6498    1.4578    0.0000 C   0  0  0  0  0  0  0  0  0  0  0  0
    4.5073   -0.1920    0.0000 C   0  0  0  0  0  0  0  0  0  0  0  0
    5.2216   -1.4293    0.0000 C   0  0  0  0  0  0  0  0  0  0  0  0
    3.7929   -1.4293    0.0000 C   0  0  0  0  0  0  0  0  0  0  0  0
    5.2216   -2.2542    0.0000 C   0  0  0  0  0  0  0  0  0  0  0  0
    3.7929   -2.2542    0.0000 C   0  0  0  0  0  0  0  0  0  0  0  0
    5.9591   -0.9883    0.0000 C   0  0  0  0  0  0  0  0  0  0  0  0
    3.0555   -0.9883    0.0000 C   0  0  0  0  0  0  0  0  0  0  0  0
    5.9591   -2.6951    0.0000 C   0  0  0  0  0  0  0  0  0  0  0  0
    6.7064   -1.4121    0.0000 C   0  0  0  0  0  0  0  0  0  0  0  0
    3.0555   -2.6951    0.0000 C   0  0  0  0  0  0  0  0  0  0  0  0
    6.7064   -2.2713    0.0000 C   0  0  0  0  0  0  0  0  0  0  0  0
    2.3081   -1.4121    0.0000 C   0  0  0  0  0  0  0  0  0  0  0  0
    2.3081   -2.2713    0.0000 C   0  0  0  0  0  0  0  0  0  0  0  0
    8.1352   -1.4066    0.0000 C   0  0  0  0  0  0  0  0  0  0  0  0
    9.5639   -1.4011    0.0000 C   0  0  0  0  0  0  0  0  0  0  0  0
   10.2767   -0.9859    0.0000 C   0  0  0  0  0  0  0  0  0  0  0  0
  1 18  1  0
  1 19  1  0
  2 13  1  0
  2 14  1  0
  3 15  2  0
  4 28  1  0
  4 29  1  0
  5 28  2  0
  6  9  1  0
  6 10  1  0
  6 11  1  0
  7 15  1  0
  7 16  1  0
  7 17  1  0
  8 23  1  0
  8 28  1  0
  9 12  1  0
 10 13  1  0
 11 14  1  0
 12 15  1  0
 16 18  2  0
 16 20  1  0
 17 19  2  0
 17 21  1  0
 18 22  1  0
 19 24  1  0
 20 23  2  0
 21 26  2  0
 22 25  2  0
 23 25  1  0
 24 27  2  0
 26 27  1  0
 29 30  1  0
M  END
$$$$
