347
     RDKit          2D

 10 10  0  0  0  0  0  0  0  0999 V2000
    2.6897    0.6348    0.0000 O   0  0  0  0  0  0  0  0  0  0  0  0
    4.5544   -0.4049    0.0000 O   0  0  0  0  0  0  0  0  0  0  0  0
    1.6501   -0.4049    0.0000 O   0  0  0  0  0  0  0  0  0  0  0  0
    3.1023   -0.6348    0.0000 N   0  0  0  0  0  0  0  0  0  0  0  0
    3.5148    0.6348    0.0000 C   0  0  0  0  0  0  0  0  0  0  0  0
    3.7697   -0.1498    0.0000 C   0  0  0  0  0  0  0  0  0  0  0  0
    4.2994    0.8897    0.0000 C   0  0  0  0  0  0  0  0  0  0  0  0
    3.5148    1.4598    0.0000 C   0  0  0  0  0  0  0  0  0  0  0  0
    2.4348   -0.1498    0.0000 C   0  0  0  0  0  0  0  0  0  0  0  0
    3.1023   -1.4598    0.0000 C   0  0  0  0  0  0  0  0  0  0  0  0
  1  5  1  0
  1  9  1  0
  2  6  2  0
  3  9  2  0
  4  6  1  0
  4  9  1  0
  4 10  1  0
  5  6  1  0
  5  7  1  0
  5  8  1  0
M  END
$$$$
