657
     RDKit          2D

 12 13  0  0  1  0  0  0  0  0999 V2000
    2.5472   -1.1420    0.0000 N   0  0  0  0  0  0  0  0  0  0  0  0
    1.9706    0.0669    0.0000 C   0  0  0  0  0  0  0  0  0  0  0  0
    2.3065   -0.5150    0.0000 C   0  0  0  0  0  0  0  0  0  0  0  0
    3.6440    0.8057    0.0000 C   0  0  0  0  0  0  0  0  0  0  0  0
    3.4701    0.1567    0.0000 C   0  0  0  0  0  0  0  0  0  0  0  0
    3.1491    1.4658    0.0000 C   0  0  0  0  0  0  0  0  0  0  0  0
    4.8746    0.2959    0.0000 C   0  0  0  0  0  0  0  0  0  0  0  0
    4.7008   -0.3529    0.0000 C   0  0  0  0  0  0  0  0  0  0  0  0
    1.5480    0.5889    0.0000 C   0  0  0  0  0  0  0  0  0  0  0  0
    1.3436   -0.1739    0.0000 C   0  0  0  0  0  0  0  0  0  0  0  0
    1.7845   -0.9377    0.0000 C   0  0  0  0  0  0  0  0  0  0  0  0
    3.2108   -1.2472    0.0000 C   0  0  0  0  0  0  0  0  0  0  0  0
  1  3  1  0
  1 12  1  0
  2  3  1  0
  2  4  1  0
  2  9  1  0
  2 10  1  0
  3  5  1  0
  3 11  1  0
  4  6  1  0
  4  7  1  0
  5  6  1  0
  5  8  1  0
  7  8  1  0
M  END
$$$$
