
     RDKit          2D

 36 36  0  0  0  0  0  0  0  0999 V2000
    6.6515   -0.2063    0.0000 O   0  0  0  0  0  0  0  0  0  0  0  0
    8.0804   -1.0313    0.0000 O   0  0  0  0  0  0  0  0  0  0  0  0
    5.2224   -1.0313    0.0000 O   0  0  0  0  0  0  0  0  0  0  0  0
    8.0804    1.4438    0.0000 N   0  0  0  0  0  0  0  0  0  0  0  0
   10.2239   -1.4438    0.0000 N   0  0  0  0  0  0  0  0  0  0  0  0
    3.0791   -1.4438    0.0000 N   0  0  0  0  0  0  0  0  0  0  0  0
    7.3659    1.0313    0.0000 C   0  0  0  0  0  0  0  0  0  0  0  0
    9.5094   -1.0313    0.0000 C   0  0  0  0  0  0  0  0  0  0  0  0
    3.7935   -1.0313    0.0000 C   0  0  0  0  0  0  0  0  0  0  0  0
    7.3659    0.2063    0.0000 C   0  0  0  0  0  0  0  0  0  0  0  0
    8.0804    2.2688    0.0000 C   0  0  0  0  0  0  0  0  0  0  0  0
    8.7949    1.0313    0.0000 C   0  0  0  0  0  0  0  0  0  0  0  0
    8.7949   -1.4438    0.0000 C   0  0  0  0  0  0  0  0  0  0  0  0
    4.5080   -1.4438    0.0000 C   0  0  0  0  0  0  0  0  0  0  0  0
   10.9383   -1.0313    0.0000 C   0  0  0  0  0  0  0  0  0  0  0  0
   10.2239   -2.2688    0.0000 C   0  0  0  0  0  0  0  0  0  0  0  0
    2.3645   -1.0313    0.0000 C   0  0  0  0  0  0  0  0  0  0  0  0
    3.0791   -2.2688    0.0000 C   0  0  0  0  0  0  0  0  0  0  0  0
    6.6515   -1.0313    0.0000 C   0  0  0  0  0  0  0  0  0  0  0  0
    7.3659   -1.4438    0.0000 C   0  0  0  0  0  0  0  0  0  0  0  0
    5.9370   -1.4438    0.0000 C   0  0  0  0  0  0  0  0  0  0  0  0
    8.7949    2.6813    0.0000 C   0  0  0  0  0  0  0  0  0  0  0  0
    9.5094    1.4438    0.0000 C   0  0  0  0  0  0  0  0  0  0  0  0
   11.6529   -1.4438    0.0000 C   0  0  0  0  0  0  0  0  0  0  0  0
   10.9383   -2.6813    0.0000 C   0  0  0  0  0  0  0  0  0  0  0  0
    1.6500   -1.4438    0.0000 C   0  0  0  0  0  0  0  0  0  0  0  0
    2.3645   -2.6813    0.0000 C   0  0  0  0  0  0  0  0  0  0  0  0
    7.3659   -2.2688    0.0000 C   0  0  0  0  0  0  0  0  0  0  0  0
    5.9370   -2.2688    0.0000 C   0  0  0  0  0  0  0  0  0  0  0  0
    6.6515   -2.6813    0.0000 C   0  0  0  0  0  0  0  0  0  0  0  0
    3.0791   -0.6188    0.0000 C   0  0  0  0  0  0  0  0  0  0  0  0
    2.3646   -0.2063    0.0000 C   0  0  0  0  0  0  0  0  0  0  0  0
    7.3659    1.8563    0.0000 C   0  0  0  0  0  0  0  0  0  0  0  0
    7.3659    2.6813    0.0000 C   0  0  0  0  0  0  0  0  0  0  0  0
   10.2239   -0.6188    0.0000 C   0  0  0  0  0  0  0  0  0  0  0  0
   10.9384   -0.2063    0.0000 C   0  0  0  0  0  0  0  0  0  0  0  0
  1 10  1  0
  1 19  1  0
  2 13  1  0
  2 20  1  0
  3 14  1  0
  3 21  1  0
  4  7  1  0
  4 11  1  0
  4 12  1  0
  5  8  1  0
  5 15  1  0
  5 16  1  0
  6  9  1  0
  6 17  1  0
  6 18  1  0
  7 10  1  0
  8 13  1  0
  9 14  1  0
 11 22  1  0
 12 23  1  0
 15 24  1  0
 16 25  1  0
 17 26  1  0
 18 27  1  0
 19 20  2  0
 19 21  1  0
 20 28  1  0
 21 29  2  0
 28 30  2  0
 29 30  1  0
  6 31  1  0
 31 32  1  0
  4 33  1  0
 33 34  1  0
  5 35  1  0
 35 36  1  0
M  CHG  3   4   1   5   1   6   1
M  END
$$$$
