920
     RDKit          2D

 22 25  0  0  0  0  0  0  0  0999 V2000
    1.9717    1.6084    0.0000 S   0  0  0  0  0  0  0  0  0  0  0  0
    2.9451    2.9253    0.0000 O   0  0  0  0  0  0  0  0  0  0  0  0
    3.7156   -2.1003    0.0000 N   0  0  0  0  0  0  0  0  0  0  0  0
    3.7156   -0.4503    0.0000 C   0  0  0  0  0  0  0  0  0  0  0  0
    4.4301   -0.8628    0.0000 C   0  0  0  0  0  0  0  0  0  0  0  0
    3.0012   -0.8628    0.0000 C   0  0  0  0  0  0  0  0  0  0  0  0
    4.4301   -1.6878    0.0000 C   0  0  0  0  0  0  0  0  0  0  0  0
    3.0012   -1.6878    0.0000 C   0  0  0  0  0  0  0  0  0  0  0  0
    3.7156    0.3747    0.0000 C   0  0  0  0  0  0  0  0  0  0  0  0
    4.4590    0.7327    0.0000 C   0  0  0  0  0  0  0  0  0  0  0  0
    2.9723    0.7327    0.0000 C   0  0  0  0  0  0  0  0  0  0  0  0
    4.6425    1.5370    0.0000 C   0  0  0  0  0  0  0  0  0  0  0  0
    3.7156   -2.9253    0.0000 C   0  0  0  0  0  0  0  0  0  0  0  0
    2.7887    1.5370    0.0000 C   0  0  0  0  0  0  0  0  0  0  0  0
    4.1281    2.1820    0.0000 C   0  0  0  0  0  0  0  0  0  0  0  0
    3.3031    2.1820    0.0000 C   0  0  0  0  0  0  0  0  0  0  0  0
    5.0798    0.1385    0.0000 C   0  0  0  0  0  0  0  0  0  0  0  0
    2.2671    0.3138    0.0000 C   0  0  0  0  0  0  0  0  0  0  0  0
    5.4597    1.8029    0.0000 C   0  0  0  0  0  0  0  0  0  0  0  0
    1.6500    0.8540    0.0000 C   0  0  0  0  0  0  0  0  0  0  0  0
    5.9029    0.3854    0.0000 C   0  0  0  0  0  0  0  0  0  0  0  0
    6.0941    1.2232    0.0000 C   0  0  0  0  0  0  0  0  0  0  0  0
  1 14  1  0
  1 20  1  0
  2 16  2  0
  3  7  1  0
  3  8  1  0
  3 13  1  0
  4  5  1  0
  4  6  1  0
  4  9  2  0
  5  7  1  0
  6  8  1  0
  9 10  1  0
  9 11  1  0
 10 12  2  0
 10 17  1  0
 11 14  2  0
 11 18  1  0
 12 15  1  0
 12 19  1  0
 14 16  1  0
 15 16  1  0
 17 21  2  0
 18 20  2  0
 19 22  2  0
 21 22  1  0
M  END
$$$$
