
     RDKit          2D

 22 25  0  0  1  0  0  0  0  0999 V2000
    1.8036   -0.1138    0.0000 C   0  0  0  0  0  0  0  0  0  0  0  0
    0.3045   -1.0964    0.0000 C   0  0  0  0  0  0  0  0  0  0  0  0
    1.8036    1.2211    0.0000 C   0  0  0  0  0  0  0  0  0  0  0  0
    0.3045    1.3786    0.0000 C   0  0  0  0  0  0  0  0  0  0  0  0
    2.2885    0.5536    0.0000 C   0  0  0  0  0  0  0  0  0  0  0  0
   -1.1245   -0.2714    0.0000 C   0  0  0  0  0  0  0  0  0  0  0  0
   -0.4100    0.9661    0.0000 C   0  0  0  0  0  0  0  0  0  0  0  0
   -0.4100   -1.5089    0.0000 C   0  0  0  0  0  0  0  0  0  0  0  0
   -1.1245   -1.0964    0.0000 C   0  0  0  0  0  0  0  0  0  0  0  0
   -1.8390    0.1411    0.0000 C   0  0  0  0  0  0  0  0  0  0  0  0
   -1.8390   -1.5089    0.0000 C   0  0  0  0  0  0  0  0  0  0  0  0
   -2.5534   -0.2714    0.0000 C   0  0  0  0  0  0  0  0  0  0  0  0
    0.3045   -0.2714    0.0000 C   0  0  0  0  0  0  0  0  0  0  0  0
   -0.4100    0.1411    0.0000 C   0  0  0  0  0  0  0  0  0  0  0  0
    1.0189    0.9661    0.0000 C   0  0  0  0  0  0  0  0  0  0  0  0
    1.0189    1.7911    0.0000 C   0  0  0  0  0  0  0  0  0  0  0  0
    1.0189    0.1411    0.0000 C   0  0  0  0  0  0  0  0  0  0  0  0
   -3.2679   -1.5089    0.0000 O   0  0  0  0  0  0  0  0  0  0  0  0
   -2.5534   -1.0964    0.0000 C   0  0  0  0  0  0  0  0  0  0  0  0
   -1.1245    0.5536    0.0000 C   0  0  0  0  0  0  0  0  0  0  0  0
    1.8036    2.0461    0.0000 O   0  0  0  0  0  0  0  0  0  0  0  0
   -3.2679    0.1411    0.0000 C   0  0  0  0  0  0  0  0  0  0  0  0
 17 13  1  0
 17 15  1  0
 17  1  1  1
 13 14  1  0
 13  2  1  6
 15  3  1  0
 15  4  1  0
  5  1  1  0
 14  6  1  0
 14  7  1  1
  2  8  1  0
  6  9  1  0
  6 10  1  0
  9 11  1  1
 10 12  1  0
 11 19  1  0
  3  5  1  0
  4  7  1  0
  8  9  1  0
 12 19  1  0
 15 16  1  1
 19 18  2  0
  6 20  1  1
  3 21  1  1
 12 22  1  6
M  END
$$$$
