
     RDKit          2D

 16 18  0  0  0  0  0  0  0  0999 V2000
    4.5232   -0.7732    0.0000 C   0  0  0  0  0  0  0  0  0  0  0  0
    4.5232    0.0454    0.0000 N   0  0  0  0  0  0  0  0  0  0  0  0
    3.0756    0.0454    0.0000 C   0  0  0  0  0  0  0  0  0  0  0  0
    3.7862   -1.1938    0.0000 N   0  0  0  0  0  0  0  0  0  0  0  0
    3.0756   -0.7732    0.0000 C   0  0  0  0  0  0  0  0  0  0  0  0
    3.7862    0.4718    0.0000 C   0  0  0  0  0  0  0  0  0  0  0  0
    2.3593    0.4547    0.0000 C   0  0  0  0  0  0  0  0  0  0  0  0
    1.6600    0.0454    0.0000 C   0  0  0  0  0  0  0  0  0  0  0  0
    2.3593   -1.1825    0.0000 C   0  0  0  0  0  0  0  0  0  0  0  0
    1.6600   -0.7732    0.0000 C   0  0  0  0  0  0  0  0  0  0  0  0
    2.3593    1.2734    0.0000 Cl  0  0  0  0  0  0  0  0  0  0  0  0
    0.9437    0.4547    0.0000 Cl  0  0  0  0  0  0  0  0  0  0  0  0
    5.3079    0.3067    0.0000 C   0  0  0  0  0  0  0  0  0  0  0  0
    5.3079   -1.0281    0.0000 N   0  0  0  0  0  0  0  0  0  0  0  0
    5.7928   -0.3607    0.0000 C   0  0  0  0  0  0  0  0  0  0  0  0
    6.6178   -0.3607    0.0000 O   0  0  0  0  0  0  0  0  0  0  0  0
  3  5  2  0
  4  1  2  0
  5  4  1  0
  6  2  1  0
  7  3  1  0
  8 10  1  0
  9  5  1  0
 10  9  2  0
 11  7  1  0
 12  8  1  0
  6  3  1  0
  8  7  2  0
  1 14  1  0
  2  1  1  0
 13  2  1  0
 14 15  1  0
 13 15  1  0
 15 16  2  0
M  END
$$$$
