811
     RDKit          2D

 17 18  0  0  1  0  0  0  0  0999 V2000
    4.1496   -1.2476    0.0000 O   0  0  0  0  0  0  0  0  0  0  0  0
    2.0301   -0.9926    0.0000 O   0  0  0  0  0  0  0  0  0  0  0  0
    2.5847   -2.6996    0.0000 O   0  0  0  0  0  0  0  0  0  0  0  0
    5.2001   -2.6134    0.0000 O   0  0  0  0  0  0  0  0  0  0  0  0
    5.2001    1.9132    0.0000 O   0  0  0  0  0  0  0  0  0  0  0  0
    3.4822    0.0624    0.0000 N   0  0  0  0  0  0  0  0  0  0  0  0
    4.1496    0.5473    0.0000 N   0  0  0  0  0  0  0  0  0  0  0  0
    3.0697    1.3320    0.0000 N   0  0  0  0  0  0  0  0  0  0  0  0
    4.0441    2.7530    0.0000 N   0  0  0  0  0  0  0  0  0  0  0  0
    3.0697   -2.0322    0.0000 C   0  0  0  0  0  0  0  0  0  0  0  0
    2.8147   -1.2476    0.0000 C   0  0  0  0  0  0  0  0  0  0  0  0
    3.8947   -2.0322    0.0000 C   0  0  0  0  0  0  0  0  0  0  0  0
    3.4822   -0.7626    0.0000 C   0  0  0  0  0  0  0  0  0  0  0  0
    4.3796   -2.6996    0.0000 C   0  0  0  0  0  0  0  0  0  0  0  0
    2.8147    0.5473    0.0000 C   0  0  0  0  0  0  0  0  0  0  0  0
    3.8947    1.3320    0.0000 C   0  0  0  0  0  0  0  0  0  0  0  0
    4.3796    1.9994    0.0000 C   0  0  0  0  0  0  0  0  0  0  0  0
  1 12  1  0
  1 13  1  0
 11  2  1  1
 10  3  1  1
  4 14  1  0
  5 17  2  0
  6  7  1  0
 13  6  1  6
  6 15  1  0
  7 16  2  0
  8 15  2  0
  8 16  1  0
  9 17  1  0
 10 11  1  0
 10 12  1  0
 11 13  1  0
 12 14  1  6
 16 17  1  0
M  END
$$$$
