542
     RDKit          2D

 31 33  0  0  1  0  0  0  0  0999 V2000
    6.8311   -1.0225    0.0000 O   0  0  0  0  0  0  0  0  0  0  0  0
    5.2988    2.2888    0.0000 O   0  0  0  0  0  0  0  0  0  0  0  0
    6.5862    1.6688    0.0000 O   0  0  0  0  0  0  0  0  0  0  0  0
    7.9012   -2.7378    0.0000 O   0  0  0  0  0  0  0  0  0  0  0  0
    7.3791   -1.4076    0.0000 O   0  0  0  0  0  0  0  0  0  0  0  0
    5.8703    0.1822    0.0000 N   0  0  0  0  0  0  0  0  0  0  0  0
    5.8431   -2.0105    0.0000 N   0  0  0  0  0  0  0  0  0  0  0  0
    5.5124   -0.5611    0.0000 C   0  0  0  0  0  0  0  0  0  0  0  0
    4.6874   -0.5611    0.0000 C   0  0  0  0  0  0  0  0  0  0  0  0
    4.1730   -1.2061    0.0000 C   0  0  0  0  0  0  0  0  0  0  0  0
    5.4055    0.8639    0.0000 C   0  0  0  0  0  0  0  0  0  0  0  0
    6.0268   -1.2061    0.0000 C   0  0  0  0  0  0  0  0  0  0  0  0
    4.3565   -2.0105    0.0000 C   0  0  0  0  0  0  0  0  0  0  0  0
    5.0999   -2.3683    0.0000 C   0  0  0  0  0  0  0  0  0  0  0  0
    4.5828    0.8022    0.0000 C   0  0  0  0  0  0  0  0  0  0  0  0
    4.1181    1.4839    0.0000 C   0  0  0  0  0  0  0  0  0  0  0  0
    6.4882   -2.5248    0.0000 C   0  0  0  0  0  0  0  0  0  0  0  0
    5.7635    1.6072    0.0000 C   0  0  0  0  0  0  0  0  0  0  0  0
    3.6391   -2.4835    0.0000 C   0  0  0  0  0  0  0  0  0  0  0  0
    5.1772   -3.2242    0.0000 C   0  0  0  0  0  0  0  0  0  0  0  0
    3.2954    1.4222    0.0000 C   0  0  0  0  0  0  0  0  0  0  0  0
    3.6968   -3.3409    0.0000 C   0  0  0  0  0  0  0  0  0  0  0  0
    4.4710   -3.7138    0.0000 C   0  0  0  0  0  0  0  0  0  0  0  0
    7.2561   -2.2234    0.0000 C   0  0  0  0  0  0  0  0  0  0  0  0
    2.9374    0.6789    0.0000 C   0  0  0  0  0  0  0  0  0  0  0  0
    2.8307    2.1038    0.0000 C   0  0  0  0  0  0  0  0  0  0  0  0
    5.6567    3.0321    0.0000 C   0  0  0  0  0  0  0  0  0  0  0  0
    2.1147    0.6173    0.0000 C   0  0  0  0  0  0  0  0  0  0  0  0
    2.0080    2.0422    0.0000 C   0  0  0  0  0  0  0  0  0  0  0  0
    1.6500    1.2989    0.0000 C   0  0  0  0  0  0  0  0  0  0  0  0
    5.1920    3.7138    0.0000 C   0  0  0  0  0  0  0  0  0  0  0  0
  1 12  2  0
  2 18  1  0
  2 27  1  0
  3 18  2  0
  4 24  1  0
  5 24  2  0
  8  6  1  6
 11  6  1  0
  7 12  1  0
  7 14  1  0
  7 17  1  0
  8  9  1  0
  8 12  1  0
  9 10  1  0
 10 13  1  0
 11 15  1  1
 11 18  1  0
 13 14  2  0
 13 19  1  0
 14 20  1  0
 15 16  1  0
 16 21  1  0
 17 24  1  0
 19 22  2  0
 20 23  2  0
 21 25  2  0
 21 26  1  0
 22 23  1  0
 25 28  1  0
 26 29  2  0
 27 31  1  0
 28 30  2  0
 29 30  1  0
M  END
$$$$
