543
     RDKit          2D

 22 25  0  0  0  0  0  0  0  0999 V2000
    1.5842   -0.9947    0.0000 Cl  0  0  0  0  0  0  0  0  0  0  0  0
    4.6236   -2.0459    0.0000 O   0  0  0  0  0  0  0  0  0  0  0  0
    3.8840    0.4029    0.0000 N   0  0  0  0  0  0  0  0  0  0  0  0
    3.1967    1.8302    0.0000 N   0  0  0  0  0  0  0  0  0  0  0  0
    5.0197   -0.3107    0.0000 N   0  0  0  0  0  0  0  0  0  0  0  0
    4.3302    1.0573    0.0000 C   0  0  0  0  0  0  0  0  0  0  0  0
    3.0942    0.4621    0.0000 C   0  0  0  0  0  0  0  0  0  0  0  0
    3.9866    1.7710    0.0000 C   0  0  0  0  0  0  0  0  0  0  0  0
    2.7505    1.1757    0.0000 C   0  0  0  0  0  0  0  0  0  0  0  0
    4.2277   -0.3107    0.0000 C   0  0  0  0  0  0  0  0  0  0  0  0
    3.7338   -0.9300    0.0000 C   0  0  0  0  0  0  0  0  0  0  0  0
    3.9100   -1.7022    0.0000 C   0  0  0  0  0  0  0  0  0  0  0  0
    5.5136   -0.9300    0.0000 C   0  0  0  0  0  0  0  0  0  0  0  0
    2.9492   -0.6747    0.0000 C   0  0  0  0  0  0  0  0  0  0  0  0
    5.3373   -1.7023    0.0000 C   0  0  0  0  0  0  0  0  0  0  0  0
    3.3140   -2.2726    0.0000 C   0  0  0  0  0  0  0  0  0  0  0  0
    2.3401   -1.2311    0.0000 C   0  0  0  0  0  0  0  0  0  0  0  0
    2.5237   -2.0355    0.0000 C   0  0  0  0  0  0  0  0  0  0  0  0
    6.2982   -0.6747    0.0000 C   0  0  0  0  0  0  0  0  0  0  0  0
    5.9334   -2.2726    0.0000 C   0  0  0  0  0  0  0  0  0  0  0  0
    6.9073   -1.2312    0.0000 C   0  0  0  0  0  0  0  0  0  0  0  0
    6.7236   -2.0355    0.0000 C   0  0  0  0  0  0  0  0  0  0  0  0
  1 17  1  0
  2 12  1  0
  2 15  1  0
  3  6  1  0
  3  7  1  0
  3 10  1  0
  4  8  1  0
  4  9  1  0
  5 10  2  0
  5 13  1  0
  6  8  1  0
  7  9  1  0
 10 11  1  0
 11 12  2  0
 11 14  1  0
 12 16  1  0
 13 15  2  0
 13 19  1  0
 14 17  2  0
 15 20  1  0
 16 18  2  0
 17 18  1  0
 19 21  2  0
 20 22  2  0
 21 22  1  0
M  END
$$$$
