
     RDKit          2D

 29 32  0  0  0  0  0  0  0  0999 V2000
   -0.9983   -0.7542    0.0000 C   0  0  0  0  0  0  0  0  0  0  0  0
    1.1594    0.4710    0.0000 C   0  0  0  0  0  0  0  0  0  0  0  0
   -0.2514   -0.3734    0.0000 C   0  0  0  0  0  0  0  0  0  0  0  0
   -0.9983   -1.5792    0.0000 C   0  0  0  0  0  0  0  0  0  0  0  0
    1.1594   -0.3587    0.0000 C   0  0  0  0  0  0  0  0  0  0  0  0
    0.4515   -0.7737    0.0000 C   0  0  0  0  0  0  0  0  0  0  0  0
    1.9161    0.7200    0.0000 C   0  0  0  0  0  0  0  0  0  0  0  0
   -0.2661    0.4759    0.0000 C   0  0  0  0  0  0  0  0  0  0  0  0
   -1.7256   -0.3294    0.0000 C   0  0  0  0  0  0  0  0  0  0  0  0
    0.4515    0.8713    0.0000 C   0  0  0  0  0  0  0  0  0  0  0  0
    2.3749    0.0463    0.0000 C   0  0  0  0  0  0  0  0  0  0  0  0
    1.9307   -0.5980    0.0000 C   0  0  0  0  0  0  0  0  0  0  0  0
    0.4515   -1.6086    0.0000 C   0  0  0  0  0  0  0  0  0  0  0  0
   -0.2661   -2.0137    0.0000 C   0  0  0  0  0  0  0  0  0  0  0  0
   -1.7403   -1.9844    0.0000 C   0  0  0  0  0  0  0  0  0  0  0  0
    1.9161    1.6573    0.0000 C   0  0  0  0  0  0  0  0  0  0  0  0
   -2.4579   -0.7542    0.0000 C   0  0  0  0  0  0  0  0  0  0  0  0
   -2.4579   -1.5646    0.0000 C   0  0  0  0  0  0  0  0  0  0  0  0
   -0.2514   -1.1936    0.0000 F   0  0  0  0  0  0  0  0  0  0  0  0
    1.2814    2.0137    0.0000 O   0  0  0  0  0  0  0  0  0  0  0  0
   -3.1951   -1.9258    0.0000 O   0  0  0  0  0  0  0  0  0  0  0  0
    2.6337    1.1301    0.0000 O   0  0  0  0  0  0  0  0  0  0  0  0
   -0.9983    0.1195    0.0000 C   0  0  0  0  0  0  0  0  0  0  0  0
    1.1594    1.2961    0.0000 C   0  0  0  0  0  0  0  0  0  0  0  0
   -0.9641    0.8957    0.0000 O   0  0  0  0  0  0  0  0  0  0  0  0
   -0.2661   -2.8631    0.0000 F   0  0  0  0  0  0  0  0  0  0  0  0
    2.6093    1.9941    0.0000 C   0  0  0  0  0  0  0  0  0  0  0  0
    2.6093    2.8631    0.0000 Cl  0  0  0  0  0  0  0  0  0  0  0  0
    3.1951    0.0219    0.0000 C   0  0  0  0  0  0  0  0  0  0  0  0
  2 10  1  0
  3  1  1  0
  4  1  1  0
  5  6  1  0
  6  3  1  0
  7  2  1  0
  8  3  1  0
  9  1  1  0
 10  8  1  0
 11 12  1  0
  5 12  1  1
 13 14  1  0
 14  4  1  0
 15  4  2  0
 16  7  1  0
 17  9  2  0
 18 17  1  0
  3 19  1  6
 20 16  2  0
 21 18  2  0
  7 22  1  6
  1 23  1  1
  2 24  1  1
  8 25  1  1
 14 26  1  6
 27 16  1  0
 28 27  1  0
 11 29  1  1
 15 18  1  0
  6 13  1  6
  2  5  1  0
  7 11  1  0
M  END
$$$$
