257
     RDKit          2D

 25 28  0  0  0  0  0  0  0  0999 V2000
    2.6961   -1.4598    0.0000 Cl  0  0  0  0  0  0  0  0  0  0  0  0
    4.1251    1.0153    0.0000 N   0  0  0  0  0  0  0  0  0  0  0  0
    4.5376    2.2848    0.0000 N   0  0  0  0  0  0  0  0  0  0  0  0
    4.1251    0.1902    0.0000 C   0  0  0  0  0  0  0  0  0  0  0  0
    4.1251   -0.6348    0.0000 C   0  0  0  0  0  0  0  0  0  0  0  0
    3.3001    0.1902    0.0000 C   0  0  0  0  0  0  0  0  0  0  0  0
    4.9501    0.1902    0.0000 C   0  0  0  0  0  0  0  0  0  0  0  0
    3.4106   -1.0473    0.0000 C   0  0  0  0  0  0  0  0  0  0  0  0
    4.8396   -1.0473    0.0000 C   0  0  0  0  0  0  0  0  0  0  0  0
    2.8876    0.9047    0.0000 C   0  0  0  0  0  0  0  0  0  0  0  0
    5.3626    0.9047    0.0000 C   0  0  0  0  0  0  0  0  0  0  0  0
    2.8876   -0.5242    0.0000 C   0  0  0  0  0  0  0  0  0  0  0  0
    5.3626   -0.5242    0.0000 C   0  0  0  0  0  0  0  0  0  0  0  0
    3.4577    1.5002    0.0000 C   0  0  0  0  0  0  0  0  0  0  0  0
    4.7925    1.5002    0.0000 C   0  0  0  0  0  0  0  0  0  0  0  0
    3.7126    2.2848    0.0000 C   0  0  0  0  0  0  0  0  0  0  0  0
    3.4106   -1.8723    0.0000 C   0  0  0  0  0  0  0  0  0  0  0  0
    4.8396   -1.8723    0.0000 C   0  0  0  0  0  0  0  0  0  0  0  0
    2.0625    0.9047    0.0000 C   0  0  0  0  0  0  0  0  0  0  0  0
    6.1876    0.9047    0.0000 C   0  0  0  0  0  0  0  0  0  0  0  0
    2.0625   -0.5242    0.0000 C   0  0  0  0  0  0  0  0  0  0  0  0
    6.1876   -0.5242    0.0000 C   0  0  0  0  0  0  0  0  0  0  0  0
    4.1251   -2.2848    0.0000 C   0  0  0  0  0  0  0  0  0  0  0  0
    1.6500    0.1902    0.0000 C   0  0  0  0  0  0  0  0  0  0  0  0
    6.6001    0.1902    0.0000 C   0  0  0  0  0  0  0  0  0  0  0  0
  1  8  1  0
  2  4  1  0
  2 14  1  0
  2 15  1  0
  3 15  2  0
  3 16  1  0
  4  5  1  0
  4  6  1  0
  4  7  1  0
  5  8  2  0
  5  9  1  0
  6 10  2  0
  6 12  1  0
  7 11  2  0
  7 13  1  0
  8 17  1  0
  9 18  2  0
 10 19  1  0
 11 20  1  0
 12 21  2  0
 13 22  2  0
 14 16  2  0
 17 23  2  0
 18 23  1  0
 19 24  2  0
 20 25  2  0
 21 24  1  0
 22 25  1  0
M  END
$$$$
