
     RDKit          2D

 23 24  0  0  0  0  0  0  0  0999 V2000
   -1.4289    0.8250    0.0000 C   0  0  0  0  0  0  0  0  0  0  0  0
   -2.1434    0.4125    0.0000 C   0  0  0  0  0  0  0  0  0  0  0  0
    2.1434    0.4125    0.0000 C   0  0  0  0  0  0  0  0  0  0  0  0
    1.4289    1.6500    0.0000 C   0  0  0  0  0  0  0  0  0  0  0  0
    2.8578    0.8250    0.0000 C   0  0  0  0  0  0  0  0  0  0  0  0
    2.1434    2.0625    0.0000 C   0  0  0  0  0  0  0  0  0  0  0  0
    0.7144   -2.0625    0.0000 C   0  0  0  0  0  0  0  0  0  0  0  0
    1.4289   -1.6500    0.0000 C   0  0  0  0  0  0  0  0  0  0  0  0
   -0.7144    0.4125    0.0000 C   0  0  0  0  0  0  0  0  0  0  0  0
    0.0000   -0.8250    0.0000 C   0  0  0  0  0  0  0  0  0  0  0  0
    1.4289    0.8250    0.0000 C   0  0  0  0  0  0  0  0  0  0  0  0
    2.8578    1.6500    0.0000 C   0  0  0  0  0  0  0  0  0  0  0  0
    0.0000   -1.6500    0.0000 C   0  0  0  0  0  0  0  0  0  0  0  0
    0.7144   -0.4125    0.0000 C   0  0  0  0  0  0  0  0  0  0  0  0
    1.4289   -0.8250    0.0000 C   0  0  0  0  0  0  0  0  0  0  0  0
   -2.8578    0.8250    0.0000 C   0  0  0  0  0  0  0  0  0  0  0  0
    0.7144    0.4125    0.0000 C   0  0  0  0  0  0  0  0  0  0  0  0
    3.5723    2.0625    0.0000 Cl  0  0  0  0  0  0  0  0  0  0  0  0
   -0.7144   -2.0625    0.0000 F   0  0  0  0  0  0  0  0  0  0  0  0
   -3.5723    0.4125    0.0000 N   0  0  0  0  0  0  0  0  0  0  0  0
    0.0000    0.8250    0.0000 N   0  0  0  0  0  0  0  0  0  0  0  0
    2.1434   -0.4125    0.0000 O   0  0  0  0  0  0  0  0  0  0  0  0
   -2.8578    1.6500    0.0000 O   0  0  0  0  0  0  0  0  0  0  0  0
  2  1  1  0
  5  3  2  0
  6  4  1  0
  8  7  2  0
  9  1  1  0
 11  3  1  0
 11  4  2  0
 12  5  1  0
 12  6  2  0
 13  7  1  0
 13 10  2  0
 14 10  1  0
 15  8  1  0
 15 14  2  0
 16  2  1  0
 17 11  1  0
 17 14  1  0
 18 12  1  0
 19 13  1  0
 20 16  2  3
 21  9  1  0
 21 17  2  0
 22 15  1  0
 23 16  1  0
M  END
$$$$
