
     RDKit          2D

 38 43  0  0  0  0  0  0  0  0999 V2000
    2.6483    0.7941    0.0000 C   0  0  0  0  0  0  0  0  0  0  0  0
   -3.0868   -0.0389    0.0000 C   0  0  0  0  0  0  0  0  0  0  0  0
    3.4767    0.8819    0.0000 C   0  0  0  0  0  0  0  0  0  0  0  0
    2.4876   -0.0244    0.0000 C   0  0  0  0  0  0  0  0  0  0  0  0
   -3.7593   -0.5360    0.0000 C   0  0  0  0  0  0  0  0  0  0  0  0
   -2.4242   -0.5311    0.0000 C   0  0  0  0  0  0  0  0  0  0  0  0
   -3.5059   -1.3204    0.0000 C   0  0  0  0  0  0  0  0  0  0  0  0
    3.8129    0.1267    0.0000 C   0  0  0  0  0  0  0  0  0  0  0  0
    3.2038   -0.4337    0.0000 C   0  0  0  0  0  0  0  0  0  0  0  0
   -2.6775   -1.3108    0.0000 C   0  0  0  0  0  0  0  0  0  0  0  0
   -3.0966    0.7845    0.0000 N   0  0  0  0  0  0  0  0  0  0  0  0
    1.9320    1.2035    0.0000 N   0  0  0  0  0  0  0  0  0  0  0  0
   -4.5633   -0.3606    0.0000 C   0  0  0  0  0  0  0  0  0  0  0  0
    3.9494    1.5447    0.0000 C   0  0  0  0  0  0  0  0  0  0  0  0
    1.7712   -0.4433    0.0000 C   0  0  0  0  0  0  0  0  0  0  0  0
   -1.6201   -0.3606    0.0000 C   0  0  0  0  0  0  0  0  0  0  0  0
    4.6315    0.0486    0.0000 C   0  0  0  0  0  0  0  0  0  0  0  0
    3.2135   -1.2523    0.0000 C   0  0  0  0  0  0  0  0  0  0  0  0
   -2.1318   -1.9247    0.0000 C   0  0  0  0  0  0  0  0  0  0  0  0
   -4.0517   -1.9247    0.0000 C   0  0  0  0  0  0  0  0  0  0  0  0
    1.2157    0.7941    0.0000 C   0  0  0  0  0  0  0  0  0  0  0  0
   -2.3706    1.2035    0.0000 C   0  0  0  0  0  0  0  0  0  0  0  0
    2.3413    1.9247    0.0000 C   0  0  0  0  0  0  0  0  0  0  0  0
    1.5081    1.9247    0.0000 C   0  0  0  0  0  0  0  0  0  0  0  0
   -3.5108    1.5105    0.0000 C   0  0  0  0  0  0  0  0  0  0  0  0
   -3.9201    0.7845    0.0000 C   0  0  0  0  0  0  0  0  0  0  0  0
   -1.6543    0.7941    0.0000 C   0  0  0  0  0  0  0  0  0  0  0  0
    0.4946    1.2035    0.0000 C   0  0  0  0  0  0  0  0  0  0  0  0
   -5.1139   -0.9745    0.0000 C   0  0  0  0  0  0  0  0  0  0  0  0
    4.7680    1.4666    0.0000 C   0  0  0  0  0  0  0  0  0  0  0  0
   -1.0646   -0.9745    0.0000 C   0  0  0  0  0  0  0  0  0  0  0  0
    1.7859   -1.2669    0.0000 C   0  0  0  0  0  0  0  0  0  0  0  0
   -0.2217    0.7941    0.0000 C   0  0  0  0  0  0  0  0  0  0  0  0
   -0.9429    1.2035    0.0000 C   0  0  0  0  0  0  0  0  0  0  0  0
    2.5021   -1.6713    0.0000 C   0  0  0  0  0  0  0  0  0  0  0  0
   -4.8557   -1.7639    0.0000 C   0  0  0  0  0  0  0  0  0  0  0  0
    5.1139    0.7114    0.0000 C   0  0  0  0  0  0  0  0  0  0  0  0
   -1.3277   -1.7590    0.0000 C   0  0  0  0  0  0  0  0  0  0  0  0
  2 11  1  0
  3  1  1  0
  4  1  1  0
  5  2  1  0
  6  2  1  0
  7  5  1  0
  8  3  1  0
  9  4  2  0
 10  6  2  0
 11 22  1  0
 12  1  1  0
 13  5  2  0
 14  3  2  0
 15  4  1  0
 16  6  1  0
 17  8  2  0
 18  9  1  0
 19 10  1  0
 20  7  2  0
 21 12  1  0
 22 27  1  0
 23 12  1  0
 24 12  1  0
 25 11  1  0
 26 11  1  0
 27 34  1  0
 28 21  1  0
 29 13  1  0
 30 14  1  0
 31 16  2  0
 32 15  2  0
 33 28  1  0
 34 33  1  0
 35 32  1  0
 36 29  2  0
 37 30  2  0
 38 31  1  0
  8  9  1  0
 18 35  2  0
 37 17  1  0
 10  7  1  0
 38 19  2  0
 36 20  1  0
M  CHG  2  11   1  12   1
M  END
$$$$
