
     RDKit          2D

 45 50  0  0  0  0  0  0  0  0999 V2000
    2.2710    0.8185    0.0000 C   0  0  0  0  0  0  0  0  0  0  0  0
    2.0091    1.6008    0.0000 N   0  0  0  0  0  0  0  0  0  0  0  0
    3.0947    0.8151    0.0000 C   0  0  0  0  0  0  0  0  0  0  0  0
    1.8575    0.1051    0.0000 C   0  0  0  0  0  0  0  0  0  0  0  0
    2.6811    2.0936    0.0000 C   0  0  0  0  0  0  0  0  0  0  0  0
    1.2854    2.0075    0.0000 C   0  0  0  0  0  0  0  0  0  0  0  0
    3.3531    1.6008    0.0000 N   0  0  0  0  0  0  0  0  0  0  0  0
    3.5047    0.1017    0.0000 C   0  0  0  0  0  0  0  0  0  0  0  0
    2.2676   -0.6082    0.0000 C   0  0  0  0  0  0  0  0  0  0  0  0
    1.4371   -0.6047    0.0000 C   0  0  0  0  0  0  0  0  0  0  0  0
    2.6811    2.9207    0.0000 O   0  0  0  0  0  0  0  0  0  0  0  0
    0.5755    1.5801    0.0000 C   0  0  0  0  0  0  0  0  0  0  0  0
    3.0912   -0.6116    0.0000 C   0  0  0  0  0  0  0  0  0  0  0  0
    0.6100   -0.5978    0.0000 O   0  0  0  0  0  0  0  0  0  0  0  0
    1.8403   -1.3215    0.0000 O   0  0  0  0  0  0  0  0  0  0  0  0
    3.3979    3.3342    0.0000 C   0  0  0  0  0  0  0  0  0  0  0  0
   -0.1516    1.9833    0.0000 C   0  0  0  0  0  0  0  0  0  0  0  0
    0.5927    0.7668    0.0000 C   0  0  0  0  0  0  0  0  0  0  0  0
    0.1964   -1.3077    0.0000 C   0  0  0  0  0  0  0  0  0  0  0  0
    3.3979    4.1613    0.0000 C   0  0  0  0  0  0  0  0  0  0  0  0
   -0.8615    1.5559    0.0000 C   0  0  0  0  0  0  0  0  0  0  0  0
   -0.1240    0.3257    0.0000 C   0  0  0  0  0  0  0  0  0  0  0  0
   -0.6272   -1.3077    0.0000 O   0  0  0  0  0  0  0  0  0  0  0  0
    0.6031   -2.0211    0.0000 C   0  0  0  0  0  0  0  0  0  0  0  0
   -0.8409    0.7288    0.0000 C   0  0  0  0  0  0  0  0  0  0  0  0
   -1.0373   -2.0176    0.0000 C   0  0  0  0  0  0  0  0  0  0  0  0
   -1.5541    0.3050    0.0000 C   0  0  0  0  0  0  0  0  0  0  0  0
   -1.8574   -2.0176    0.0000 O   0  0  0  0  0  0  0  0  0  0  0  0
   -0.6272   -2.7345    0.0000 O   0  0  0  0  0  0  0  0  0  0  0  0
   -2.2813    0.7048    0.0000 C   0  0  0  0  0  0  0  0  0  0  0  0
   -1.5404   -0.5220    0.0000 C   0  0  0  0  0  0  0  0  0  0  0  0
   -2.2710   -2.7310    0.0000 C   0  0  0  0  0  0  0  0  0  0  0  0
   -2.2951    1.5353    0.0000 C   0  0  0  0  0  0  0  0  0  0  0  0
   -2.9878    0.2809    0.0000 C   0  0  0  0  0  0  0  0  0  0  0  0
   -2.2503   -0.9494    0.0000 C   0  0  0  0  0  0  0  0  0  0  0  0
   -3.0912   -2.7310    0.0000 C   0  0  0  0  0  0  0  0  0  0  0  0
   -1.8574   -3.4479    0.0000 C   0  0  0  0  0  0  0  0  0  0  0  0
   -2.9637    2.0109    0.0000 N   0  0  0  0  0  0  0  0  0  0  0  0
   -1.6266    2.0350    0.0000 N   0  0  0  0  0  0  0  0  0  0  0  0
   -2.9706   -0.5496    0.0000 C   0  0  0  0  0  0  0  0  0  0  0  0
   -3.5047   -3.4479    0.0000 C   0  0  0  0  0  0  0  0  0  0  0  0
   -2.2675   -4.1613    0.0000 C   0  0  0  0  0  0  0  0  0  0  0  0
   -2.7225    2.8035    0.0000 N   0  0  0  0  0  0  0  0  0  0  0  0
   -1.8953    2.8173    0.0000 N   0  0  0  0  0  0  0  0  0  0  0  0
   -3.0912   -4.1613    0.0000 C   0  0  0  0  0  0  0  0  0  0  0  0
  1  2  1  0
  1  3  2  0
  1  4  1  0
  2  5  1  0
  2  6  1  0
  3  7  1  0
  3  8  1  0
  4  9  2  0
  4 10  1  0
  5 11  1  0
  6 12  1  0
  8 13  2  0
 10 14  1  0
 10 15  2  0
 11 16  1  0
 12 17  2  0
 12 18  1  0
 14 19  1  0
 16 20  1  0
 17 21  1  0
 18 22  2  0
 19 23  1  0
 19 24  1  0
 21 25  2  0
 23 26  1  0
 25 27  1  0
 26 28  1  0
 26 29  2  0
 27 30  1  0
 27 31  2  0
 28 32  1  0
 30 33  1  0
 30 34  2  0
 31 35  1  0
 32 36  1  0
 32 37  1  0
 33 38  1  0
 33 39  2  0
 34 40  1  0
 36 41  1  0
 37 42  1  0
 38 43  1  0
 39 44  1  0
 41 45  1  0
  5  7  2  0
  9 13  1  0
 22 25  1  0
 35 40  2  0
 42 45  1  0
 43 44  2  0
M  END
$$$$
