
     RDKit          2D

 19 18  0  0  0  0  0  0  0  0999 V2000
    1.2629    0.0000    0.0000 C   0  0  0  0  0  0  0  0  0  0  0  0
    1.9874   -0.4183    0.0000 O   0  0  0  0  0  0  0  0  0  0  0  0
    0.5384   -0.4183    0.0000 C   0  0  0  0  0  0  0  0  0  0  0  0
   -0.1760   -0.0057    0.0000 C   0  0  0  0  0  0  0  0  0  0  0  0
   -0.8856   -0.4153    0.0000 C   0  0  0  0  0  0  0  0  0  0  0  0
   -1.5974   -0.0042    0.0000 C   0  0  0  0  0  0  0  0  0  0  0  0
   -2.3083   -0.4146    0.0000 C   0  0  0  0  0  0  0  0  0  0  0  0
   -3.0196   -0.0038    0.0000 C   0  0  0  0  0  0  0  0  0  0  0  0
   -3.7307   -0.4144    0.0000 C   0  0  0  0  0  0  0  0  0  0  0  0
   -0.8857   -1.2548    0.0000 C   0  0  0  0  0  0  0  0  0  0  0  0
   -1.5989   -1.6666    0.0000 C   0  0  0  0  0  0  0  0  0  0  0  0
    1.2629    0.8366    0.0000 C   0  0  0  0  0  0  0  0  0  0  0  0
    1.9874    1.2549    0.0000 C   0  0  0  0  0  0  0  0  0  0  0  0
    2.7020    0.8424    0.0000 C   0  0  0  0  0  0  0  0  0  0  0  0
    1.9875    2.0915    0.0000 C   0  0  0  0  0  0  0  0  0  0  0  0
    1.9875   -1.2548    0.0000 S   0  0  0  0  0  0  0  0  0  0  0  0
    1.9875   -2.0915    0.0000 O   0  0  0  0  0  0  0  0  0  0  0  0
    2.8108   -1.2548    0.0000 O   0  0  0  0  0  0  0  0  0  0  0  0
    1.1374   -1.2549    0.0000 O   0  0  0  0  0  0  0  0  0  0  0  0
  1  2  1  0
  1  3  1  0
  3  4  1  0
  4  5  1  0
  5  6  1  0
  6  7  1  0
  7  8  1  0
  8  9  1  0
  5 10  1  0
 10 11  1  0
  1 12  1  0
 12 13  1  0
 13 14  1  0
 13 15  1  0
  2 16  1  0
 16 17  2  0
 16 18  1  0
 16 19  2  0
M  CHG  1  18  -1
M  END
$$$$
