
     RDKit          2D

 62 68  0  0  0  0  0  0  0  0999 V2000
   18.8442    0.8897    0.0000 C   0  0  0  0  0  0  0  0  0  0  0  0
   18.1930    1.3963    0.0000 C   0  0  0  0  0  0  0  0  0  0  0  0
   17.4287    1.0857    0.0000 C   0  0  0  0  0  0  0  0  0  0  0  0
   17.3156    0.2685    0.0000 C   0  0  0  0  0  0  0  0  0  0  0  0
   16.7776    1.5923    0.0000 C   0  0  0  0  0  0  0  0  0  0  0  0
   16.0133    1.2816    0.0000 O   0  0  0  0  0  0  0  0  0  0  0  0
   15.3621    1.7882    0.0000 C   0  0  0  0  0  0  0  0  0  0  0  0
   15.4753    2.6054    0.0000 C   0  0  0  0  0  0  0  0  0  0  0  0
   16.2396    2.9161    0.0000 C   0  0  0  0  0  0  0  0  0  0  0  0
   16.8907    2.4095    0.0000 C   0  0  0  0  0  0  0  0  0  0  0  0
   17.6550    2.7201    0.0000 C   0  0  0  0  0  0  0  0  0  0  0  0
   14.7110    2.2948    0.0000 C   0  0  0  0  0  0  0  0  0  0  0  0
   13.9467    1.9842    0.0000 C   0  0  0  0  0  0  0  0  0  0  0  0
   13.8336    1.1670    0.0000 C   0  0  0  0  0  0  0  0  0  0  0  0
   14.4847    0.6604    0.0000 C   0  0  0  0  0  0  0  0  0  0  0  0
   14.3716   -0.1568    0.0000 C   0  0  0  0  0  0  0  0  0  0  0  0
   13.6073   -0.4674    0.0000 C   0  0  0  0  0  0  0  0  0  0  0  0
   13.4941   -1.2846    0.0000 C   0  0  0  0  0  0  0  0  0  0  0  0
   14.1453   -1.7912    0.0000 C   0  0  0  0  0  0  0  0  0  0  0  0
   12.7299   -1.5952    0.0000 C   0  0  0  0  0  0  0  0  0  0  0  0
   12.6167   -2.4124    0.0000 O   0  0  0  0  0  0  0  0  0  0  0  0
   11.8524   -2.7231    0.0000 C   0  0  0  0  0  0  0  0  0  0  0  0
   11.7393   -3.5403    0.0000 C   0  0  0  0  0  0  0  0  0  0  0  0
   10.9750   -3.8509    0.0000 C   0  0  0  0  0  0  0  0  0  0  0  0
   10.8619   -4.6681    0.0000 O   0  0  0  0  0  0  0  0  0  0  0  0
   10.0976   -4.9787    0.0000 C   0  0  0  0  0  0  0  0  0  0  0  0
   10.3238   -3.3443    0.0000 C   0  0  0  0  0  0  0  0  0  0  0  0
    9.5596   -3.6549    0.0000 O   0  0  0  0  0  0  0  0  0  0  0  0
    8.9084   -3.1483    0.0000 C   0  0  0  0  0  0  0  0  0  0  0  0
    8.1441   -3.4590    0.0000 C   0  0  0  0  0  0  0  0  0  0  0  0
    7.4930   -2.9524    0.0000 C   0  0  0  0  0  0  0  0  0  0  0  0
    6.7287   -3.2630    0.0000 O   0  0  0  0  0  0  0  0  0  0  0  0
    6.6155   -4.0802    0.0000 C   0  0  0  0  0  0  0  0  0  0  0  0
    7.6061   -2.1352    0.0000 C   0  0  0  0  0  0  0  0  0  0  0  0
    6.9550   -1.6286    0.0000 O   0  0  0  0  0  0  0  0  0  0  0  0
    8.3704   -1.8246    0.0000 C   0  0  0  0  0  0  0  0  0  0  0  0
    8.4835   -1.0074    0.0000 C   0  0  0  0  0  0  0  0  0  0  0  0
    9.0215   -2.3311    0.0000 O   0  0  0  0  0  0  0  0  0  0  0  0
   10.4370   -2.5271    0.0000 C   0  0  0  0  0  0  0  0  0  0  0  0
    9.7858   -2.0205    0.0000 C   0  0  0  0  0  0  0  0  0  0  0  0
   11.2013   -2.2165    0.0000 O   0  0  0  0  0  0  0  0  0  0  0  0
   12.0787   -1.0887    0.0000 C   0  0  0  0  0  0  0  0  0  0  0  0
   11.3144   -1.3993    0.0000 C   0  0  0  0  0  0  0  0  0  0  0  0
   12.1918   -0.2715    0.0000 C   0  0  0  0  0  0  0  0  0  0  0  0
   11.5407    0.2351    0.0000 C   0  0  0  0  0  0  0  0  0  0  0  0
   11.6538    1.0523    0.0000 C   0  0  0  0  0  0  0  0  0  0  0  0
   11.0027    1.5589    0.0000 C   0  0  0  0  0  0  0  0  0  0  0  0
   10.1798    1.4997    0.0000 C   0  0  0  0  0  0  0  0  0  0  0  0
    9.8692    2.2640    0.0000 O   0  0  0  0  0  0  0  0  0  0  0  0
   10.5001    2.7956    0.0000 C   0  0  0  0  0  0  0  0  0  0  0  0
   10.5272    3.6201    0.0000 C   0  0  0  0  0  0  0  0  0  0  0  0
    9.8267    4.0559    0.0000 O   0  0  0  0  0  0  0  0  0  0  0  0
   11.2548    4.0089    0.0000 C   0  0  0  0  0  0  0  0  0  0  0  0
   11.2819    4.8335    0.0000 C   0  0  0  0  0  0  0  0  0  0  0  0
   11.9554    3.5732    0.0000 C   0  0  0  0  0  0  0  0  0  0  0  0
   11.8801    2.6867    0.0000 C   0  0  0  0  0  0  0  0  0  0  0  0
   12.5313    2.1802    0.0000 C   0  0  0  0  0  0  0  0  0  0  0  0
   12.4181    1.3630    0.0000 O   0  0  0  0  0  0  0  0  0  0  0  0
   13.2956    2.4908    0.0000 O   0  0  0  0  0  0  0  0  0  0  0  0
   11.1158    2.3761    0.0000 C   0  0  0  0  0  0  0  0  0  0  0  0
   11.2031    3.1965    0.0000 O   0  0  0  0  0  0  0  0  0  0  0  0
   15.2490    0.9710    0.0000 O   0  0  0  0  0  0  0  0  0  0  0  0
  1  2  1  0
  2  3  1  0
  3  4  1  1
  5  3  1  0
  5  6  1  1
  7  6  1  0
  7  8  1  6
  8  9  1  0
  9 10  1  0
  5 10  1  0
 10 11  1  6
  7 12  1  0
 13 12  1  6
 13 14  1  0
 15 14  1  0
 15 16  1  6
 16 17  1  0
 17 18  2  0
 18 19  1  0
 18 20  1  0
 20 21  1  1
 22 21  1  1
 22 23  1  0
 23 24  1  0
 24 25  1  6
 25 26  1  0
 24 27  1  0
 27 28  1  1
 29 28  1  1
 29 30  1  0
 30 31  1  0
 31 32  1  6
 32 33  1  0
 31 34  1  0
 34 35  1  1
 34 36  1  0
 36 37  1  6
 36 38  1  0
 29 38  1  0
 27 39  1  0
 39 40  1  6
 39 41  1  0
 22 41  1  0
 20 42  1  0
 42 43  1  1
 42 44  1  0
 44 45  2  0
 45 46  1  0
 46 47  2  0
 47 48  1  0
 48 49  1  0
 50 49  1  6
 50 51  1  0
 51 52  1  6
 51 53  1  0
 53 54  1  0
 53 55  2  0
 56 55  1  1
 56 57  1  0
 57 58  2  0
 57 59  1  0
 13 59  1  0
 56 60  1  0
 47 60  1  0
 50 60  1  0
 60 61  1  1
 15 62  1  0
  7 62  1  0
M  END
$$$$
