619
     RDKit          2D

 37 41  0  0  0  0  0  0  0  0999 V2000
    5.9370   -0.4125    0.0000 O   0  0  0  0  0  0  0  0  0  0  0  0
    2.3645   -2.4751    0.0000 N   0  0  0  0  0  0  0  0  0  0  0  0
    2.3645   -4.1251    0.0000 N   0  0  0  0  0  0  0  0  0  0  0  0
    5.2224    0.8250    0.0000 N   0  0  0  0  0  0  0  0  0  0  0  0
    6.6515    3.3001    0.0000 N   0  0  0  0  0  0  0  0  0  0  0  0
    5.2224    3.3001    0.0000 N   0  0  0  0  0  0  0  0  0  0  0  0
    5.9370    4.5376    0.0000 N   0  0  0  0  0  0  0  0  0  0  0  0
    3.0791    2.0625    0.0000 N   0  0  0  0  0  0  0  0  0  0  0  0
    1.6500   -2.8876    0.0000 C   0  0  0  0  0  0  0  0  0  0  0  0
    3.0791   -2.8876    0.0000 C   0  0  0  0  0  0  0  0  0  0  0  0
    1.6500   -3.7126    0.0000 C   0  0  0  0  0  0  0  0  0  0  0  0
    3.0791   -3.7126    0.0000 C   0  0  0  0  0  0  0  0  0  0  0  0
    2.3645   -1.6500    0.0000 C   0  0  0  0  0  0  0  0  0  0  0  0
    2.3645   -4.9501    0.0000 C   0  0  0  0  0  0  0  0  0  0  0  0
    3.0791   -1.2375    0.0000 C   0  0  0  0  0  0  0  0  0  0  0  0
    3.7935   -1.6500    0.0000 C   0  0  0  0  0  0  0  0  0  0  0  0
    3.0791   -0.4125    0.0000 C   0  0  0  0  0  0  0  0  0  0  0  0
    4.5080   -1.2375    0.0000 C   0  0  0  0  0  0  0  0  0  0  0  0
    3.7935    0.0000    0.0000 C   0  0  0  0  0  0  0  0  0  0  0  0
    4.5080   -0.4125    0.0000 C   0  0  0  0  0  0  0  0  0  0  0  0
    5.2224    0.0000    0.0000 C   0  0  0  0  0  0  0  0  0  0  0  0
    5.9370    1.2375    0.0000 C   0  0  0  0  0  0  0  0  0  0  0  0
    6.6515    2.4751    0.0000 C   0  0  0  0  0  0  0  0  0  0  0  0
    5.9370    2.0625    0.0000 C   0  0  0  0  0  0  0  0  0  0  0  0
    7.3659    2.0625    0.0000 C   0  0  0  0  0  0  0  0  0  0  0  0
    6.6515    0.8250    0.0000 C   0  0  0  0  0  0  0  0  0  0  0  0
    7.3659    1.2375    0.0000 C   0  0  0  0  0  0  0  0  0  0  0  0
    8.0804    2.4751    0.0000 C   0  0  0  0  0  0  0  0  0  0  0  0
    5.9370    3.7126    0.0000 C   0  0  0  0  0  0  0  0  0  0  0  0
    4.5080    3.7126    0.0000 C   0  0  0  0  0  0  0  0  0  0  0  0
    3.7935    3.3001    0.0000 C   0  0  0  0  0  0  0  0  0  0  0  0
    4.5080    4.5376    0.0000 C   0  0  0  0  0  0  0  0  0  0  0  0
    5.2224    4.9501    0.0000 C   0  0  0  0  0  0  0  0  0  0  0  0
    3.0791    3.7126    0.0000 C   0  0  0  0  0  0  0  0  0  0  0  0
    3.7935    2.4751    0.0000 C   0  0  0  0  0  0  0  0  0  0  0  0
    2.3645    3.3001    0.0000 C   0  0  0  0  0  0  0  0  0  0  0  0
    2.3645    2.4751    0.0000 C   0  0  0  0  0  0  0  0  0  0  0  0
  1 21  2  0
  2  9  1  0
  2 10  1  0
  2 13  1  0
  3 11  1  0
  3 12  1  0
  3 14  1  0
  4 21  1  0
  4 22  1  0
  5 23  1  0
  5 29  1  0
  6 29  2  0
  6 30  1  0
  7 29  1  0
  7 33  2  0
  8 35  2  0
  8 37  1  0
  9 11  1  0
 10 12  1  0
 13 15  1  0
 15 16  2  0
 15 17  1  0
 16 18  1  0
 17 19  2  0
 18 20  2  0
 19 20  1  0
 20 21  1  0
 22 24  2  0
 22 26  1  0
 23 24  1  0
 23 25  2  0
 25 27  1  0
 25 28  1  0
 26 27  2  0
 30 31  1  0
 30 32  2  0
 31 34  2  0
 31 35  1  0
 32 33  1  0
 34 36  1  0
 36 37  2  0
M  END
$$$$
