134
     RDKit          2D

  9  8  0  0  1  0  0  0  0  0999 V2000
    2.3642   -1.4436    0.0000 S   0  0  0  0  0  0  0  0  0  0  0  0
    4.5075    0.6187    0.0000 O   0  0  0  0  0  0  0  0  0  0  0  0
    3.7930    1.8561    0.0000 O   0  0  0  0  0  0  0  0  0  0  0  0
    2.3642    1.0312    0.0000 N   0  0  0  0  0  0  0  0  0  0  0  0
    3.0787   -0.2063    0.0000 C   0  0  0  0  0  0  0  0  0  0  0  0
    3.0787    0.6187    0.0000 C   0  0  0  0  0  0  0  0  0  0  0  0
    2.3642   -0.6187    0.0000 C   0  0  0  0  0  0  0  0  0  0  0  0
    3.7930    1.0312    0.0000 C   0  0  0  0  0  0  0  0  0  0  0  0
    1.6498   -1.8561    0.0000 C   0  0  0  0  0  0  0  0  0  0  0  0
  1  7  1  0
  1  9  1  0
  2  8  1  0
  3  8  2  0
  6  4  1  6
  5  6  1  0
  5  7  1  0
  6  8  1  0
M  END
$$$$
