270
     RDKit          2D

 27 29  0  0  1  0  0  0  0  0999 V2000
    3.0791    0.5693    0.0000 O   0  0  0  0  0  0  0  0  0  0  0  0
    7.3659    0.5693    0.0000 O   0  0  0  0  0  0  0  0  0  0  0  0
    3.7935   -0.6683    0.0000 O   0  0  0  0  0  0  0  0  0  0  0  0
    7.1991   -1.4933    0.0000 O   0  0  0  0  0  0  0  0  0  0  0  0
    7.3660   -0.2557    0.0000 O   0  0  0  0  0  0  0  0  0  0  0  0
    5.2224    1.8068    0.0000 N   0  0  0  0  0  0  0  0  0  0  0  0
    6.7176   -0.8294    0.0000 N   0  0  0  0  0  0  0  0  0  0  0  0
    6.7176   -2.1572    0.0000 N   0  0  0  0  0  0  0  0  0  0  0  0
    5.2224    0.1568    0.0000 C   0  0  0  0  0  0  0  0  0  0  0  0
    4.5080    0.5693    0.0000 C   0  0  0  0  0  0  0  0  0  0  0  0
    5.9370    0.5693    0.0000 C   0  0  0  0  0  0  0  0  0  0  0  0
    5.2224   -0.6683    0.0000 C   0  0  0  0  0  0  0  0  0  0  0  0
    4.5080    1.3943    0.0000 C   0  0  0  0  0  0  0  0  0  0  0  0
    5.9370    1.3943    0.0000 C   0  0  0  0  0  0  0  0  0  0  0  0
    5.9370   -1.0808    0.0000 C   0  0  0  0  0  0  0  0  0  0  0  0
    3.7935    0.1568    0.0000 C   0  0  0  0  0  0  0  0  0  0  0  0
    4.5080   -1.0808    0.0000 C   0  0  0  0  0  0  0  0  0  0  0  0
    3.7935    1.8068    0.0000 C   0  0  0  0  0  0  0  0  0  0  0  0
    6.6515    0.1568    0.0000 C   0  0  0  0  0  0  0  0  0  0  0  0
    6.6515    1.8068    0.0000 C   0  0  0  0  0  0  0  0  0  0  0  0
    5.9370   -1.9058    0.0000 C   0  0  0  0  0  0  0  0  0  0  0  0
    4.5080   -1.9058    0.0000 C   0  0  0  0  0  0  0  0  0  0  0  0
    5.2224   -2.3183    0.0000 C   0  0  0  0  0  0  0  0  0  0  0  0
    2.3645    0.1568    0.0000 C   0  0  0  0  0  0  0  0  0  0  0  0
    1.6500    0.5693    0.0000 C   0  0  0  0  0  0  0  0  0  0  0  0
    2.3645   -0.6683    0.0000 C   0  0  0  0  0  0  0  0  0  0  0  0
    8.0804    0.1568    0.0000 C   0  0  0  0  0  0  0  0  0  0  0  0
  1 16  1  0
  1 24  1  0
  2 19  1  0
  2 27  1  0
  3 16  2  0
  4  7  1  0
  4  8  1  0
  5 19  2  0
  6 13  1  0
  6 14  1  0
  7 15  2  0
  8 21  2  0
  9 10  1  0
  9 11  1  0
  9 12  1  0
 10 13  2  0
 10 16  1  0
 11 14  2  0
 11 19  1  0
 12 15  1  0
 12 17  2  0
 13 18  1  0
 14 20  1  0
 15 21  1  0
 17 22  1  0
 21 23  1  0
 22 23  2  0
 24 25  1  0
 24 26  1  0
M  END
$$$$
