432
     RDKit          2D

 20 21  0  0  1  0  0  0  0  0999 V2000
    4.9205    1.2428    0.0000 F   0  0  0  0  0  0  0  0  0  0  0  0
    5.2224    2.3699    0.0000 F   0  0  0  0  0  0  0  0  0  0  0  0
    4.0955    2.6718    0.0000 F   0  0  0  0  0  0  0  0  0  0  0  0
    3.7465   -1.0026    0.0000 O   0  0  0  0  0  0  0  0  0  0  0  0
    2.1816   -2.4548    0.0000 O   0  0  0  0  0  0  0  0  0  0  0  0
    4.7970   -2.3685    0.0000 O   0  0  0  0  0  0  0  0  0  0  0  0
    1.6500    0.3073    0.0000 O   0  0  0  0  0  0  0  0  0  0  0  0
    3.0791    2.7824    0.0000 O   0  0  0  0  0  0  0  0  0  0  0  0
    3.0791    0.3073    0.0000 N   0  0  0  0  0  0  0  0  0  0  0  0
    2.3645    1.5448    0.0000 N   0  0  0  0  0  0  0  0  0  0  0  0
    3.0791   -0.5177    0.0000 C   0  0  0  0  0  0  0  0  0  0  0  0
    2.6665   -1.7873    0.0000 C   0  0  0  0  0  0  0  0  0  0  0  0
    2.4115   -1.0026    0.0000 C   0  0  0  0  0  0  0  0  0  0  0  0
    3.4916   -1.7873    0.0000 C   0  0  0  0  0  0  0  0  0  0  0  0
    3.9764   -2.4548    0.0000 C   0  0  0  0  0  0  0  0  0  0  0  0
    3.7935    0.7198    0.0000 C   0  0  0  0  0  0  0  0  0  0  0  0
    2.3645    0.7198    0.0000 C   0  0  0  0  0  0  0  0  0  0  0  0
    3.7935    1.5448    0.0000 C   0  0  0  0  0  0  0  0  0  0  0  0
    3.0791    1.9574    0.0000 C   0  0  0  0  0  0  0  0  0  0  0  0
    4.5080    1.9574    0.0000 C   0  0  0  0  0  0  0  0  0  0  0  0
  1 20  1  0
  2 20  1  0
  3 20  1  0
  4 11  1  0
  4 14  1  0
 12  5  1  1
  6 15  1  0
  7 17  2  0
  8 19  2  0
 11  9  1  6
  9 16  1  0
  9 17  1  0
 10 17  1  0
 10 19  1  0
 11 13  1  0
 12 13  1  0
 12 14  1  0
 14 15  1  6
 16 18  2  0
 18 19  1  0
 18 20  1  0
M  END
$$$$
