440
     RDKit          2D

 21 22  0  0  0  0  0  0  0  0999 V2000
    6.3799    1.6995    0.0000 O   0  0  0  0  0  0  0  0  0  0  0  0
    3.5220    1.6995    0.0000 O   0  0  0  0  0  0  0  0  0  0  0  0
    4.9509    2.5246    0.0000 O   0  0  0  0  0  0  0  0  0  0  0  0
    3.5220   -2.4256    0.0000 N   0  0  0  0  0  0  0  0  0  0  0  0
    2.8075   -1.1880    0.0000 N   0  0  0  0  0  0  0  0  0  0  0  0
    4.9509   -2.4256    0.0000 N   0  0  0  0  0  0  0  0  0  0  0  0
    2.0930   -2.4256    0.0000 N   0  0  0  0  0  0  0  0  0  0  0  0
    4.9509   -0.7755    0.0000 C   0  0  0  0  0  0  0  0  0  0  0  0
    4.9509    0.0495    0.0000 C   0  0  0  0  0  0  0  0  0  0  0  0
    4.2365   -1.1880    0.0000 C   0  0  0  0  0  0  0  0  0  0  0  0
    4.2365    0.4620    0.0000 C   0  0  0  0  0  0  0  0  0  0  0  0
    5.6655    0.4620    0.0000 C   0  0  0  0  0  0  0  0  0  0  0  0
    5.6655    1.2870    0.0000 C   0  0  0  0  0  0  0  0  0  0  0  0
    4.2365    1.2870    0.0000 C   0  0  0  0  0  0  0  0  0  0  0  0
    4.9509    1.6995    0.0000 C   0  0  0  0  0  0  0  0  0  0  0  0
    4.2365   -2.0130    0.0000 C   0  0  0  0  0  0  0  0  0  0  0  0
    3.5220   -0.7755    0.0000 C   0  0  0  0  0  0  0  0  0  0  0  0
    2.8075   -2.0130    0.0000 C   0  0  0  0  0  0  0  0  0  0  0  0
    7.0944    1.2870    0.0000 C   0  0  0  0  0  0  0  0  0  0  0  0
    2.8075    1.2870    0.0000 C   0  0  0  0  0  0  0  0  0  0  0  0
    5.6655    2.9371    0.0000 C   0  0  0  0  0  0  0  0  0  0  0  0
  1 13  1  0
  1 19  1  0
  2 14  1  0
  2 20  1  0
  3 15  1  0
  3 21  1  0
  4 16  2  0
  4 18  1  0
  5 17  1  0
  5 18  2  0
  6 16  1  0
  7 18  1  0
  8  9  1  0
  8 10  1  0
  9 11  2  0
  9 12  1  0
 10 16  1  0
 10 17  2  0
 11 14  1  0
 12 13  2  0
 13 15  1  0
 14 15  2  0
M  END
$$$$
