957
     RDKit          2D

 27 30  0  0  1  0  0  0  0  0999 V2000
    8.7053    0.8591    0.0000 O   0  0  0  0  0  0  0  0  0  0  0  0
    9.5431   -0.2985    0.0000 O   0  0  0  0  0  0  0  0  0  0  0  0
    2.0940   -1.9791    0.0000 O   0  0  0  0  0  0  0  0  0  0  0  0
    2.8069   -2.3944    0.0000 N   0  0  0  0  0  0  0  0  0  0  0  0
    7.2563    0.1238    0.0000 C   0  0  0  0  0  0  0  0  0  0  0  0
    7.2563   -0.7012    0.0000 C   0  0  0  0  0  0  0  0  0  0  0  0
    6.5418   -1.1137    0.0000 C   0  0  0  0  0  0  0  0  0  0  0  0
    5.8274   -0.7012    0.0000 C   0  0  0  0  0  0  0  0  0  0  0  0
    8.0369    0.3753    0.0000 C   0  0  0  0  0  0  0  0  0  0  0  0
    6.5418    0.5363    0.0000 C   0  0  0  0  0  0  0  0  0  0  0  0
    8.0369   -0.9526    0.0000 C   0  0  0  0  0  0  0  0  0  0  0  0
    5.8274    0.1238    0.0000 C   0  0  0  0  0  0  0  0  0  0  0  0
    8.5184   -0.2887    0.0000 C   0  0  0  0  0  0  0  0  0  0  0  0
    5.0766   -1.1193    0.0000 C   0  0  0  0  0  0  0  0  0  0  0  0
    6.5550   -1.9729    0.0000 C   0  0  0  0  0  0  0  0  0  0  0  0
    7.2563    0.9489    0.0000 C   0  0  0  0  0  0  0  0  0  0  0  0
    5.8142   -2.4083    0.0000 C   0  0  0  0  0  0  0  0  0  0  0  0
    5.0699   -1.9786    0.0000 C   0  0  0  0  0  0  0  0  0  0  0  0
    4.3119   -0.6539    0.0000 C   0  0  0  0  0  0  0  0  0  0  0  0
    7.7834    1.1604    0.0000 C   0  0  0  0  0  0  0  0  0  0  0  0
    6.5418    1.3614    0.0000 C   0  0  0  0  0  0  0  0  0  0  0  0
    3.5298   -1.0895    0.0000 C   0  0  0  0  0  0  0  0  0  0  0  0
    4.2982   -2.4322    0.0000 C   0  0  0  0  0  0  0  0  0  0  0  0
    3.5230   -1.9846    0.0000 C   0  0  0  0  0  0  0  0  0  0  0  0
    9.4583    0.5222    0.0000 C   0  0  0  0  0  0  0  0  0  0  0  0
    7.5298    1.9454    0.0000 C   0  0  0  0  0  0  0  0  0  0  0  0
   10.1266    1.0059    0.0000 C   0  0  0  0  0  0  0  0  0  0  0  0
  9  1  1  0
  1 25  1  0
  2 25  2  0
  3  4  1  0
  4 24  2  0
  5  6  1  0
  5  9  1  0
  5 10  1  0
  5 16  1  1
  6  7  1  0
  6 11  1  1
  7  8  1  0
  7 15  1  6
  8 12  1  1
  8 14  1  0
  9 13  1  0
  9 20  1  6
 10 12  1  0
 11 13  1  0
 14 18  1  0
 14 19  1  6
 15 17  1  0
 16 21  1  0
 17 18  1  0
 18 23  2  0
 19 22  1  0
 20 26  3  0
 22 24  1  0
 23 24  1  0
 25 27  1  0
M  END
$$$$
