656
     RDKit          2D

 26 29  0  0  0  0  0  0  0  0999 V2000
    7.6412   -3.5820    0.0000 Cl  0  0  0  0  0  0  0  0  0  0  0  0
    4.1159    3.5820    0.0000 O   0  0  0  0  0  0  0  0  0  0  0  0
    6.8162    0.7049    0.0000 N   0  0  0  0  0  0  0  0  0  0  0  0
    7.6412   -0.7240    0.0000 N   0  0  0  0  0  0  0  0  0  0  0  0
    4.3412    2.1339    0.0000 N   0  0  0  0  0  0  0  0  0  0  0  0
    3.0791    2.5464    0.0000 N   0  0  0  0  0  0  0  0  0  0  0  0
    3.8597    1.4699    0.0000 N   0  0  0  0  0  0  0  0  0  0  0  0
    6.4037   -0.0096    0.0000 C   0  0  0  0  0  0  0  0  0  0  0  0
    7.6412    0.7049    0.0000 C   0  0  0  0  0  0  0  0  0  0  0  0
    6.8162   -0.7240    0.0000 C   0  0  0  0  0  0  0  0  0  0  0  0
    8.0537   -0.0096    0.0000 C   0  0  0  0  0  0  0  0  0  0  0  0
    6.4037    1.4194    0.0000 C   0  0  0  0  0  0  0  0  0  0  0  0
    5.5787    1.4194    0.0000 C   0  0  0  0  0  0  0  0  0  0  0  0
    5.1662    2.1339    0.0000 C   0  0  0  0  0  0  0  0  0  0  0  0
    8.0537   -1.4386    0.0000 C   0  0  0  0  0  0  0  0  0  0  0  0
    7.6412   -2.1530    0.0000 C   0  0  0  0  0  0  0  0  0  0  0  0
    8.8788   -1.4386    0.0000 C   0  0  0  0  0  0  0  0  0  0  0  0
    3.8597    2.7978    0.0000 C   0  0  0  0  0  0  0  0  0  0  0  0
    3.0791    1.7214    0.0000 C   0  0  0  0  0  0  0  0  0  0  0  0
    8.0537   -2.8675    0.0000 C   0  0  0  0  0  0  0  0  0  0  0  0
    9.2913   -2.1530    0.0000 C   0  0  0  0  0  0  0  0  0  0  0  0
    8.8788   -2.8675    0.0000 C   0  0  0  0  0  0  0  0  0  0  0  0
    2.3645    2.9589    0.0000 C   0  0  0  0  0  0  0  0  0  0  0  0
    2.3645    1.3089    0.0000 C   0  0  0  0  0  0  0  0  0  0  0  0
    1.6500    2.5464    0.0000 C   0  0  0  0  0  0  0  0  0  0  0  0
    1.6500    1.7214    0.0000 C   0  0  0  0  0  0  0  0  0  0  0  0
  1 20  1  0
  2 18  2  0
  3  8  1  0
  3  9  1  0
  3 12  1  0
  4 10  1  0
  4 11  1  0
  4 15  1  0
  5  7  1  0
  5 14  1  0
  5 18  1  0
  6 18  1  0
  6 19  1  0
  6 23  1  0
  7 19  2  0
  8 10  1  0
  9 11  1  0
 12 13  1  0
 13 14  1  0
 15 16  2  0
 15 17  1  0
 16 20  1  0
 17 21  2  0
 19 24  1  0
 20 22  2  0
 21 22  1  0
 23 25  2  0
 24 26  2  0
 25 26  1  0
M  END
$$$$
