
     RDKit          2D

 27 28  0  0  1  0  0  0  0  0999 V2000
    9.1805   -4.8012    0.0000 N   0  0  0  0  0  0  0  0  0  0  0  0
    8.4673   -5.2160    0.0000 C   0  0  0  0  0  0  0  0  0  0  0  0
    9.9336   -5.1331    0.0000 C   0  0  0  0  0  0  0  0  0  0  0  0
    7.0381   -5.2203    0.0000 N   0  0  0  0  0  0  0  0  0  0  0  0
    7.7512   -4.8054    0.0000 C   0  0  0  0  0  0  0  0  0  0  0  0
   10.1057   -5.9430    0.0000 C   0  0  0  0  0  0  0  0  0  0  0  0
    6.3219   -3.9891    0.0000 C   0  0  0  0  0  0  0  0  0  0  0  0
    6.3297   -4.8116    0.0000 C   0  0  0  0  0  0  0  0  0  0  0  0
    8.4675   -6.0368    0.0000 O   0  0  0  0  0  0  0  0  0  0  0  0
    9.4971   -6.4941    0.0000 O   0  0  0  0  0  0  0  0  0  0  0  0
    7.0252   -3.5620    0.0000 O   0  0  0  0  0  0  0  0  0  0  0  0
    5.6166   -5.2265    0.0000 C   0  0  0  0  0  0  0  0  0  0  0  0
    9.2616   -3.9778    0.0000 C   0  0  0  0  0  0  0  0  0  0  0  0
   10.8928   -6.1914    0.0000 O   0  0  0  0  0  0  0  0  0  0  0  0
    5.6010   -3.5880    0.0000 O   0  0  0  0  0  0  0  0  0  0  0  0
    4.9035   -4.8207    0.0000 C   0  0  0  0  0  0  0  0  0  0  0  0
   10.4815   -4.5217    0.0000 C   0  0  0  0  0  0  0  0  0  0  0  0
    4.1903   -5.2355    0.0000 C   0  0  0  0  0  0  0  0  0  0  0  0
   10.0667   -3.8085    0.0000 C   0  0  0  0  0  0  0  0  0  0  0  0
    7.7512   -3.9848    0.0000 C   0  0  0  0  0  0  0  0  0  0  0  0
    5.5882   -2.7624    0.0000 C   0  0  0  0  0  0  0  0  0  0  0  0
    3.4742   -4.8250    0.0000 C   0  0  0  0  0  0  0  0  0  0  0  0
    4.1903   -6.0561    0.0000 C   0  0  0  0  0  0  0  0  0  0  0  0
    2.7611   -5.2399    0.0000 C   0  0  0  0  0  0  0  0  0  0  0  0
    3.4772   -6.4710    0.0000 C   0  0  0  0  0  0  0  0  0  0  0  0
    2.7639   -6.0653    0.0000 C   0  0  0  0  0  0  0  0  0  0  0  0
    4.8674   -2.3612    0.0000 C   0  0  0  0  0  0  0  0  0  0  0  0
  2  1  1  0
  3  1  1  0
 13  1  1  0
  5  2  1  0
  9  2  2  0
  3  6  1  1
 17  3  1  0
  5  4  1  0
  8  4  1  0
  5 20  1  1
 10  6  2  0
 14  6  1  0
  8  7  1  0
 11  7  2  0
 15  7  1  0
  8 12  1  1
 16 12  1  0
 19 13  1  0
 21 15  1  0
 18 16  1  0
 19 17  1  0
 22 18  2  0
 23 18  1  0
 24 22  1  0
 25 23  2  0
 26 24  2  0
 26 25  1  0
 21 27  1  0
M  END
$$$$
