902
     RDKit          2D

 21 24  0  0  1  0  0  0  0  0999 V2000
    3.6960   -1.8487    0.0000 S   0  0  0  0  0  0  0  0  0  0  0  0
    5.6356    1.1902    0.0000 N   0  0  0  0  0  0  0  0  0  0  0  0
    3.6960   -0.2644    0.0000 N   0  0  0  0  0  0  0  0  0  0  0  0
    4.3820    0.9237    0.0000 C   0  0  0  0  0  0  0  0  0  0  0  0
    4.4648    1.7115    0.0000 C   0  0  0  0  0  0  0  0  0  0  0  0
    5.1056    0.6016    0.0000 C   0  0  0  0  0  0  0  0  0  0  0  0
    5.2396    1.8761    0.0000 C   0  0  0  0  0  0  0  0  0  0  0  0
    3.6960    0.5276    0.0000 C   0  0  0  0  0  0  0  0  0  0  0  0
    6.4234    1.1074    0.0000 C   0  0  0  0  0  0  0  0  0  0  0  0
    4.3820   -0.6605    0.0000 C   0  0  0  0  0  0  0  0  0  0  0  0
    3.0100   -0.6605    0.0000 C   0  0  0  0  0  0  0  0  0  0  0  0
    4.3820   -1.4527    0.0000 C   0  0  0  0  0  0  0  0  0  0  0  0
    3.0100   -1.4527    0.0000 C   0  0  0  0  0  0  0  0  0  0  0  0
    5.0901   -0.2370    0.0000 C   0  0  0  0  0  0  0  0  0  0  0  0
    2.3020   -0.2370    0.0000 C   0  0  0  0  0  0  0  0  0  0  0  0
    5.0901   -1.8761    0.0000 C   0  0  0  0  0  0  0  0  0  0  0  0
    2.3020   -1.8761    0.0000 C   0  0  0  0  0  0  0  0  0  0  0  0
    5.8078   -0.6441    0.0000 C   0  0  0  0  0  0  0  0  0  0  0  0
    1.5842   -0.6441    0.0000 C   0  0  0  0  0  0  0  0  0  0  0  0
    5.8078   -1.4691    0.0000 C   0  0  0  0  0  0  0  0  0  0  0  0
    1.5842   -1.4691    0.0000 C   0  0  0  0  0  0  0  0  0  0  0  0
  1 12  1  0
  1 13  1  0
  2  6  1  0
  2  7  1  0
  2  9  1  0
  3  8  1  0
  3 10  1  0
  3 11  1  0
  4  5  1  0
  4  6  1  0
  4  8  1  0
  5  7  1  0
 10 12  2  0
 10 14  1  0
 11 13  2  0
 11 15  1  0
 12 16  1  0
 13 17  1  0
 14 18  2  0
 15 19  2  0
 16 20  2  0
 17 21  2  0
 18 20  1  0
 19 21  1  0
M  END
$$$$
