862
     RDKit          2D

 34 37  0  0  0  0  0  0  0  0999 V2000
    5.2224   -0.4125    0.0000 S   0  0  0  0  0  0  0  0  0  0  0  0
    5.6350   -1.1270    0.0000 O   0  0  0  0  0  0  0  0  0  0  0  0
    4.8099    0.3020    0.0000 O   0  0  0  0  0  0  0  0  0  0  0  0
    8.0804    1.2375    0.0000 O   0  0  0  0  0  0  0  0  0  0  0  0
    8.7949   -2.4751    0.0000 O   0  0  0  0  0  0  0  0  0  0  0  0
    4.5080   -0.8250    0.0000 N   0  0  0  0  0  0  0  0  0  0  0  0
    3.0791   -1.6500    0.0000 N   0  0  0  0  0  0  0  0  0  0  0  0
    9.5094   -0.4125    0.0000 N   0  0  0  0  0  0  0  0  0  0  0  0
    8.7949    0.0000    0.0000 N   0  0  0  0  0  0  0  0  0  0  0  0
    8.0804   -1.2375    0.0000 N   0  0  0  0  0  0  0  0  0  0  0  0
   10.7715   -0.8250    0.0000 N   0  0  0  0  0  0  0  0  0  0  0  0
    3.7935   -0.4125    0.0000 C   0  0  0  0  0  0  0  0  0  0  0  0
    4.5080   -1.6500    0.0000 C   0  0  0  0  0  0  0  0  0  0  0  0
    3.0791   -0.8250    0.0000 C   0  0  0  0  0  0  0  0  0  0  0  0
    3.7935   -2.0625    0.0000 C   0  0  0  0  0  0  0  0  0  0  0  0
    2.3645   -2.0625    0.0000 C   0  0  0  0  0  0  0  0  0  0  0  0
    5.9370    0.0000    0.0000 C   0  0  0  0  0  0  0  0  0  0  0  0
    1.6500   -1.6500    0.0000 C   0  0  0  0  0  0  0  0  0  0  0  0
    6.6515   -0.4125    0.0000 C   0  0  0  0  0  0  0  0  0  0  0  0
    5.9370    0.8250    0.0000 C   0  0  0  0  0  0  0  0  0  0  0  0
    7.3659    0.0000    0.0000 C   0  0  0  0  0  0  0  0  0  0  0  0
    7.3659    0.8250    0.0000 C   0  0  0  0  0  0  0  0  0  0  0  0
    8.0804   -0.4125    0.0000 C   0  0  0  0  0  0  0  0  0  0  0  0
    6.6515    1.2375    0.0000 C   0  0  0  0  0  0  0  0  0  0  0  0
   10.2900   -0.1611    0.0000 C   0  0  0  0  0  0  0  0  0  0  0  0
    9.5094   -1.2375    0.0000 C   0  0  0  0  0  0  0  0  0  0  0  0
   10.5464    0.6231    0.0000 C   0  0  0  0  0  0  0  0  0  0  0  0
   10.2900   -1.4889    0.0000 C   0  0  0  0  0  0  0  0  0  0  0  0
    8.7949   -1.6500    0.0000 C   0  0  0  0  0  0  0  0  0  0  0  0
   11.3537    0.7933    0.0000 C   0  0  0  0  0  0  0  0  0  0  0  0
   10.5464   -2.2732    0.0000 C   0  0  0  0  0  0  0  0  0  0  0  0
   11.6099    1.5774    0.0000 C   0  0  0  0  0  0  0  0  0  0  0  0
    8.0804    2.0625    0.0000 C   0  0  0  0  0  0  0  0  0  0  0  0
    8.7949    2.4751    0.0000 C   0  0  0  0  0  0  0  0  0  0  0  0
  1  2  2  0
  1  3  2  0
  1  6  1  0
  1 17  1  0
  4 22  1  0
  4 33  1  0
  5 29  2  0
  6 12  1  0
  6 13  1  0
  7 14  1  0
  7 15  1  0
  7 16  1  0
  8  9  1  0
  8 25  1  0
  8 26  1  0
  9 23  1  0
 10 23  2  0
 10 29  1  0
 11 25  2  0
 11 28  1  0
 12 14  1  0
 13 15  1  0
 16 18  1  0
 17 19  2  0
 17 20  1  0
 19 21  1  0
 20 24  2  0
 21 22  2  0
 21 23  1  0
 22 24  1  0
 25 27  1  0
 26 28  2  0
 26 29  1  0
 27 30  1  0
 28 31  1  0
 30 32  1  0
 33 34  1  0
M  END
$$$$
