
     RDKit          2D

131138  0  0  0  0  0  0  0  0999 V2000
  -14.9450    0.9816    0.0000 C   0  0  0  0  0  0  0  0  0  0  0  0
  -14.2326   -0.2544    0.0000 O   0  0  0  0  0  0  0  0  0  0  0  0
  -14.2272    0.5680    0.0000 C   0  0  0  0  0  0  0  0  0  0  0  0
  -14.9456    1.8057    0.0000 C   0  0  0  0  0  0  0  0  0  0  0  0
  -14.2344    2.2178    0.0000 C   0  0  0  0  0  0  0  0  0  0  0  0
  -15.6593    2.2194    0.0000 C   0  0  0  0  0  0  0  0  0  0  0  0
  -12.8353    0.6382    0.0000 C   0  0  0  0  0  0  0  0  0  0  0  0
  -12.1310    1.8759    0.0000 O   0  0  0  0  0  0  0  0  0  0  0  0
  -12.1285    1.0502    0.0000 C   0  0  0  0  0  0  0  0  0  0  0  0
  -10.6694    0.9769    0.0000 C   0  0  0  0  0  0  0  0  0  0  0  0
   -9.9477   -0.2610    0.0000 O   0  0  0  0  0  0  0  0  0  0  0  0
   -9.9553    0.5664    0.0000 C   0  0  0  0  0  0  0  0  0  0  0  0
  -10.6718    1.8025    0.0000 C   0  0  0  0  0  0  0  0  0  0  0  0
   -9.9540    2.2147    0.0000 C   0  0  0  0  0  0  0  0  0  0  0  0
   -9.9576    3.0387    0.0000 C   0  0  0  0  0  0  0  0  0  0  0  0
   -9.2423    1.7996    0.0000 C   0  0  0  0  0  0  0  0  0  0  0  0
   -8.5631    0.6380    0.0000 C   0  0  0  0  0  0  0  0  0  0  0  0
   -7.8467    1.8726    0.0000 O   0  0  0  0  0  0  0  0  0  0  0  0
   -8.5607   -0.1865    0.0000 C   0  0  0  0  0  0  0  0  0  0  0  0
   -7.8443    1.0480    0.0000 C   0  0  0  0  0  0  0  0  0  0  0  0
   -6.3825    0.9802    0.0000 C   0  0  0  0  0  0  0  0  0  0  0  0
   -5.6676   -0.2511    0.0000 O   0  0  0  0  0  0  0  0  0  0  0  0
   -5.6700    0.5734    0.0000 C   0  0  0  0  0  0  0  0  0  0  0  0
   -6.3849    1.8048    0.0000 C   0  0  0  0  0  0  0  0  0  0  0  0
   -5.6687    2.2209    0.0000 C   0  0  0  0  0  0  0  0  0  0  0  0
   -7.1001    2.2179    0.0000 C   0  0  0  0  0  0  0  0  0  0  0  0
   -4.2855    0.6441    0.0000 C   0  0  0  0  0  0  0  0  0  0  0  0
   -3.5735    1.8864    0.0000 O   0  0  0  0  0  0  0  0  0  0  0  0
   -3.5727    1.0556    0.0000 C   0  0  0  0  0  0  0  0  0  0  0  0
   -4.2892   -0.1788    0.0000 C   0  0  0  0  0  0  0  0  0  0  0  0
   -3.5680   -0.5934    0.0000 C   0  0  0  0  0  0  0  0  0  0  0  0
   -5.0019   -0.5904    0.0000 C   0  0  0  0  0  0  0  0  0  0  0  0
   -2.1101    0.9871    0.0000 C   0  0  0  0  0  0  0  0  0  0  0  0
   -1.3969   -0.2503    0.0000 O   0  0  0  0  0  0  0  0  0  0  0  0
   -1.3993    0.5743    0.0000 C   0  0  0  0  0  0  0  0  0  0  0  0
   -2.1106    1.8100    0.0000 C   0  0  0  0  0  0  0  0  0  0  0  0
   -1.3964    2.2235    0.0000 C   0  0  0  0  0  0  0  0  0  0  0  0
   -2.8276    2.2246    0.0000 C   0  0  0  0  0  0  0  0  0  0  0  0
   -0.0102    0.6528    0.0000 C   0  0  0  0  0  0  0  0  0  0  0  0
    0.7229    1.8480    0.0000 O   0  0  0  0  0  0  0  0  0  0  0  0
    0.7253    1.0234    0.0000 C   0  0  0  0  0  0  0  0  0  0  0  0
   -0.0539   -0.1711    0.0000 C   0  0  0  0  0  0  0  0  0  0  0  0
    1.4097   -0.3266    0.0000 C   0  0  0  0  0  0  0  0  0  0  0  0
    0.6424   -0.6245    0.0000 C   0  0  0  0  0  0  0  0  0  0  0  0
    0.6805   -1.4428    0.0000 C   0  0  0  0  0  0  0  0  0  0  0  0
    1.4816   -1.6578    0.0000 C   0  0  0  0  0  0  0  0  0  0  0  0
    1.6944   -2.4564    0.0000 C   0  0  0  0  0  0  0  0  0  0  0  0
    1.1094   -3.0399    0.0000 C   0  0  0  0  0  0  0  0  0  0  0  0
    0.3123   -2.8249    0.0000 C   0  0  0  0  0  0  0  0  0  0  0  0
    0.0979   -2.0323    0.0000 C   0  0  0  0  0  0  0  0  0  0  0  0
    2.1830    0.9576    0.0000 C   0  0  0  0  0  0  0  0  0  0  0  0
    2.9006   -0.2799    0.0000 O   0  0  0  0  0  0  0  0  0  0  0  0
    2.8982    0.5447    0.0000 C   0  0  0  0  0  0  0  0  0  0  0  0
    2.1848    1.7822    0.0000 C   0  0  0  0  0  0  0  0  0  0  0  0
    2.8995    2.1921    0.0000 C   0  0  0  0  0  0  0  0  0  0  0  0
    2.8971    3.0167    0.0000 C   0  0  0  0  0  0  0  0  0  0  0  0
    3.6145    1.7792    0.0000 C   0  0  0  0  0  0  0  0  0  0  0  0
    4.2858    0.6242    0.0000 C   0  0  0  0  0  0  0  0  0  0  0  0
    4.9961    1.8604    0.0000 O   0  0  0  0  0  0  0  0  0  0  0  0
    4.9985    1.0359    0.0000 C   0  0  0  0  0  0  0  0  0  0  0  0
    4.2846   -0.2045    0.0000 C   0  0  0  0  0  0  0  0  0  0  0  0
    5.7554   -0.2800    0.0000 C   0  0  0  0  0  0  0  0  0  0  0  0
    4.9972   -0.6115    0.0000 C   0  0  0  0  0  0  0  0  0  0  0  0
    5.0838   -1.4378    0.0000 C   0  0  0  0  0  0  0  0  0  0  0  0
    5.8915   -1.6078    0.0000 C   0  0  0  0  0  0  0  0  0  0  0  0
    6.1505   -2.3924    0.0000 C   0  0  0  0  0  0  0  0  0  0  0  0
    5.5976   -3.0069    0.0000 C   0  0  0  0  0  0  0  0  0  0  0  0
    4.7898   -2.8370    0.0000 C   0  0  0  0  0  0  0  0  0  0  0  0
    4.5365   -2.0463    0.0000 C   0  0  0  0  0  0  0  0  0  0  0  0
    6.4624    0.9636    0.0000 C   0  0  0  0  0  0  0  0  0  0  0  0
    7.1755   -0.2701    0.0000 O   0  0  0  0  0  0  0  0  0  0  0  0
    7.1792    0.5526    0.0000 C   0  0  0  0  0  0  0  0  0  0  0  0
    6.4601    1.7883    0.0000 C   0  0  0  0  0  0  0  0  0  0  0  0
    7.1744    2.2017    0.0000 C   0  0  0  0  0  0  0  0  0  0  0  0
    7.1721    3.0263    0.0000 C   0  0  0  0  0  0  0  0  0  0  0  0
    7.8895    1.7930    0.0000 C   0  0  0  0  0  0  0  0  0  0  0  0
    8.5618    0.6354    0.0000 C   0  0  0  0  0  0  0  0  0  0  0  0
    9.2679    1.8717    0.0000 O   0  0  0  0  0  0  0  0  0  0  0  0
    9.2702    1.0471    0.0000 C   0  0  0  0  0  0  0  0  0  0  0  0
    8.5600   -0.1889    0.0000 C   0  0  0  0  0  0  0  0  0  0  0  0
   10.0287   -0.2626    0.0000 C   0  0  0  0  0  0  0  0  0  0  0  0
    9.2750   -0.6018    0.0000 C   0  0  0  0  0  0  0  0  0  0  0  0
    9.3632   -1.4221    0.0000 C   0  0  0  0  0  0  0  0  0  0  0  0
   10.1691   -1.5906    0.0000 C   0  0  0  0  0  0  0  0  0  0  0  0
   10.4240   -2.3752    0.0000 C   0  0  0  0  0  0  0  0  0  0  0  0
    9.8710   -2.9896    0.0000 C   0  0  0  0  0  0  0  0  0  0  0  0
    9.0693   -2.8212    0.0000 C   0  0  0  0  0  0  0  0  0  0  0  0
    8.8103   -2.0366    0.0000 C   0  0  0  0  0  0  0  0  0  0  0  0
   10.7303    0.9748    0.0000 C   0  0  0  0  0  0  0  0  0  0  0  0
   11.4478   -0.2625    0.0000 O   0  0  0  0  0  0  0  0  0  0  0  0
   11.4454    0.5618    0.0000 C   0  0  0  0  0  0  0  0  0  0  0  0
   10.7279    1.7993    0.0000 C   0  0  0  0  0  0  0  0  0  0  0  0
   11.4423    2.2171    0.0000 C   0  0  0  0  0  0  0  0  0  0  0  0
   11.4460    3.0399    0.0000 C   0  0  0  0  0  0  0  0  0  0  0  0
   12.1635    1.8024    0.0000 C   0  0  0  0  0  0  0  0  0  0  0  0
   12.8272    0.6393    0.0000 C   0  0  0  0  0  0  0  0  0  0  0  0
   13.5437    1.8738    0.0000 O   0  0  0  0  0  0  0  0  0  0  0  0
   13.5461    1.0492    0.0000 C   0  0  0  0  0  0  0  0  0  0  0  0
   12.8296   -0.1853    0.0000 C   0  0  0  0  0  0  0  0  0  0  0  0
   13.5448   -0.5982    0.0000 C   0  0  0  0  0  0  0  0  0  0  0  0
   13.6314   -1.4203    0.0000 C   0  0  0  0  0  0  0  0  0  0  0  0
   14.4391   -1.5904    0.0000 C   0  0  0  0  0  0  0  0  0  0  0  0
   14.6981   -2.3750    0.0000 C   0  0  0  0  0  0  0  0  0  0  0  0
   14.1467   -2.9875    0.0000 C   0  0  0  0  0  0  0  0  0  0  0  0
   13.3391   -2.8174    0.0000 C   0  0  0  0  0  0  0  0  0  0  0  0
   13.0801   -2.0329    0.0000 C   0  0  0  0  0  0  0  0  0  0  0  0
  -16.4012    1.0443    0.0000 C   0  0  0  0  0  0  0  0  0  0  0  0
  -16.4025    1.8688    0.0000 O   0  0  0  0  0  0  0  0  0  0  0  0
   14.2598    0.6361    0.0000 N   0  0  0  0  0  0  0  0  0  0  0  0
   14.2588   -0.1884    0.0000 C   0  0  0  0  0  0  0  0  0  0  0  0
   14.9743    1.0475    0.0000 C   0  0  0  0  0  0  0  0  0  0  0  0
   15.6879    0.6344    0.0000 C   0  0  0  0  0  0  0  0  0  0  0  0
   16.4025    1.0458    0.0000 O   0  0  0  0  0  0  0  0  0  0  0  0
  -15.6897    0.6267    0.0000 N   0  0  0  0  0  0  0  0  0  0  0  0
  -13.5535    1.0442    0.0000 N   0  0  0  0  0  0  0  0  0  0  0  0
  -11.4182    0.6305    0.0000 N   0  0  0  0  0  0  0  0  0  0  0  0
   -9.2819    1.0431    0.0000 N   0  0  0  0  0  0  0  0  0  0  0  0
   -7.1311    0.6334    0.0000 N   0  0  0  0  0  0  0  0  0  0  0  0
   -5.0005    1.0555    0.0000 N   0  0  0  0  0  0  0  0  0  0  0  0
   -2.8592    0.6415    0.0000 N   0  0  0  0  0  0  0  0  0  0  0  0
   -0.7298    1.0564    0.0000 N   0  0  0  0  0  0  0  0  0  0  0  0
    1.9311   -0.9660    0.0000 N   0  0  0  0  0  0  0  0  0  0  0  0
    1.4367    0.6058    0.0000 N   0  0  0  0  0  0  0  0  0  0  0  0
    3.5664    1.0282    0.0000 N   0  0  0  0  0  0  0  0  0  0  0  0
    6.3059   -0.8944    0.0000 N   0  0  0  0  0  0  0  0  0  0  0  0
    5.7118    0.6214    0.0000 N   0  0  0  0  0  0  0  0  0  0  0  0
    7.8436    1.0417    0.0000 N   0  0  0  0  0  0  0  0  0  0  0  0
   10.5808   -0.8757    0.0000 N   0  0  0  0  0  0  0  0  0  0  0  0
    9.9813    0.6288    0.0000 N   0  0  0  0  0  0  0  0  0  0  0  0
   12.1112    1.0489    0.0000 N   0  0  0  0  0  0  0  0  0  0  0  0
   14.7709   -0.8351    0.0000 N   0  0  0  0  0  0  0  0  0  0  0  0
 12 11  2  0
 10 13  1  6
 13 14  1  0
 14 15  1  0
 14 16  1  0
 17 20  1  0
 20 18  2  0
 17 19  1  6
 21 23  1  0
 23 22  2  0
 21 24  1  0
 24 25  1  0
 24 26  1  0
 27 29  1  0
 29 28  2  0
 27 30  1  0
 30 31  1  0
 30 32  1  0
 33 35  1  0
 35 34  2  0
 33 36  1  0
 36 37  1  0
 36 38  1  0
 39 41  1  0
 41 40  2  0
 39 42  1  6
 42 44  1  0
 43 44  2  0
 44 45  1  0
 45 46  2  0
 46 47  1  0
 47 48  2  0
 48 49  1  0
 49 50  2  0
 50 45  1  0
 51 53  1  0
 53 52  2  0
 51 54  1  6
 54 55  1  0
 55 56  1  0
 55 57  1  0
 58 60  1  0
 60 59  2  0
 58 61  1  6
 61 63  1  0
 62 63  2  0
 63 64  1  0
 64 65  2  0
 65 66  1  0
 66 67  2  0
 67 68  1  0
 68 69  2  0
 69 64  1  0
 70 72  1  0
 72 71  2  0
 70 73  1  6
 73 74  1  0
 74 75  1  0
 74 76  1  0
 77 79  1  0
 79 78  2  0
 77 80  1  6
 80 82  1  0
 81 82  2  0
 82 83  1  0
 83 84  2  0
 84 85  1  0
 85 86  2  0
 86 87  1  0
 87 88  2  0
 88 83  1  0
 89 91  1  0
 91 90  2  0
 89 92  1  6
 92 93  1  0
 93 94  1  0
 93 95  1  0
 96 98  1  0
 98 97  2  0
 96 99  1  6
 99100  1  0
110100  2  0
100101  1  0
101102  1  0
102103  2  0
103104  1  0
104105  2  0
105106  1  0
106101  2  0
107108  2  0
 98109  1  0
109111  1  0
111112  1  0
112113  1  0
  1  3  1  0
  3  2  2  0
  1  4  1  0
  4  5  1  0
  4  6  1  0
  7  9  1  0
  9  8  2  0
 10 12  1  0
122 43  1  0
 46122  1  0
  3115  1  0
115  7  1  0
123 51  1  0
 41123  1  0
 21118  1  6
 20118  1  0
124 58  1  0
 53124  1  0
114107  1  0
  1114  1  1
125 62  1  0
 65125  1  0
 27119  1  6
 23119  1  0
126 70  1  0
 60126  1  0
  9116  1  0
116 10  1  0
127 77  1  0
 72127  1  0
 33120  1  6
 29120  1  0
128 81  1  0
 84128  1  0
129 89  1  0
 79129  1  0
121 39  1  0
 35121  1  0
130 96  1  0
 91130  1  0
117 17  1  0
 12117  1  0
131110  1  0
102131  1  0
M  END
$$$$
