456
     RDKit          2D

 26 28  0  0  1  0  0  0  0  0999 V2000
    5.2224   -1.2711    0.0000 S   0  0  0  0  0  0  0  0  0  0  0  0
    9.8251   -0.8378    0.0000 S   0  0  0  0  0  0  0  0  0  0  0  0
    7.3510    0.5544    0.0000 O   0  0  0  0  0  0  0  0  0  0  0  0
    3.0791   -0.0336    0.0000 O   0  0  0  0  0  0  0  0  0  0  0  0
    4.5080    1.6165    0.0000 O   0  0  0  0  0  0  0  0  0  0  0  0
    8.3635   -0.4382    0.0000 O   0  0  0  0  0  0  0  0  0  0  0  0
    5.9370    1.6165    0.0000 O   0  0  0  0  0  0  0  0  0  0  0  0
    2.3645    1.2039    0.0000 O   0  0  0  0  0  0  0  0  0  0  0  0
    5.9370   -0.0336    0.0000 N   0  0  0  0  0  0  0  0  0  0  0  0
    7.3510   -1.4466    0.0000 N   0  0  0  0  0  0  0  0  0  0  0  0
    5.9370   -0.8586    0.0000 C   0  0  0  0  0  0  0  0  0  0  0  0
    6.7688   -0.8621    0.0000 C   0  0  0  0  0  0  0  0  0  0  0  0
    6.7688   -0.0302    0.0000 C   0  0  0  0  0  0  0  0  0  0  0  0
    5.2224    0.3789    0.0000 C   0  0  0  0  0  0  0  0  0  0  0  0
    4.5080   -0.0336    0.0000 C   0  0  0  0  0  0  0  0  0  0  0  0
    4.5080   -0.8586    0.0000 C   0  0  0  0  0  0  0  0  0  0  0  0
    3.7935    0.3789    0.0000 C   0  0  0  0  0  0  0  0  0  0  0  0
    8.1483   -1.2347    0.0000 C   0  0  0  0  0  0  0  0  0  0  0  0
    5.2224    1.2039    0.0000 C   0  0  0  0  0  0  0  0  0  0  0  0
    8.7305   -1.8193    0.0000 C   0  0  0  0  0  0  0  0  0  0  0  0
    9.5278   -1.6074    0.0000 C   0  0  0  0  0  0  0  0  0  0  0  0
    2.3645    0.3789    0.0000 C   0  0  0  0  0  0  0  0  0  0  0  0
   10.1679   -2.1280    0.0000 C   0  0  0  0  0  0  0  0  0  0  0  0
   10.8608   -1.6800    0.0000 C   0  0  0  0  0  0  0  0  0  0  0  0
   10.6489   -0.8827    0.0000 C   0  0  0  0  0  0  0  0  0  0  0  0
    1.6500   -0.0336    0.0000 C   0  0  0  0  0  0  0  0  0  0  0  0
 11  1  1  1
  1 16  1  0
  2 21  1  0
  2 25  1  0
  3 13  2  0
  4 17  1  0
  4 22  1  0
  5 19  1  0
  6 18  2  0
  7 19  2  0
  8 22  2  0
  9 11  1  0
  9 13  1  0
  9 14  1  0
 12 10  1  1
 10 18  1  0
 11 12  1  0
 12 13  1  0
 14 15  2  0
 14 19  1  0
 15 16  1  0
 15 17  1  0
 18 20  1  0
 20 21  1  0
 21 23  2  0
 22 26  1  0
 23 24  1  0
 24 25  2  0
M  END
$$$$
