404
     RDKit          2D

 22 25  0  0  0  0  0  0  0  0999 V2000
    1.6500   -0.2321    0.0000 Cl  0  0  0  0  0  0  0  0  0  0  0  0
    4.8159   -1.3269    0.0000 N   0  0  0  0  0  0  0  0  0  0  0  0
    5.2284    0.4805    0.0000 N   0  0  0  0  0  0  0  0  0  0  0  0
    6.1244   -1.5631    0.0000 N   0  0  0  0  0  0  0  0  0  0  0  0
    5.7352   -2.2849    0.0000 N   0  0  0  0  0  0  0  0  0  0  0  0
    4.0726   -0.9689    0.0000 C   0  0  0  0  0  0  0  0  0  0  0  0
    3.8890   -0.1645    0.0000 C   0  0  0  0  0  0  0  0  0  0  0  0
    5.5592   -0.9689    0.0000 C   0  0  0  0  0  0  0  0  0  0  0  0
    4.4034    0.4805    0.0000 C   0  0  0  0  0  0  0  0  0  0  0  0
    5.7428   -0.1645    0.0000 C   0  0  0  0  0  0  0  0  0  0  0  0
    4.9281   -2.1392    0.0000 C   0  0  0  0  0  0  0  0  0  0  0  0
    3.4517   -1.5630    0.0000 C   0  0  0  0  0  0  0  0  0  0  0  0
    3.0718    0.1014    0.0000 C   0  0  0  0  0  0  0  0  0  0  0  0
    4.0454    1.2238    0.0000 C   0  0  0  0  0  0  0  0  0  0  0  0
    2.6286   -1.3160    0.0000 C   0  0  0  0  0  0  0  0  0  0  0  0
    2.4374   -0.4783    0.0000 C   0  0  0  0  0  0  0  0  0  0  0  0
    4.3328   -2.7104    0.0000 C   0  0  0  0  0  0  0  0  0  0  0  0
    3.2227    1.2854    0.0000 C   0  0  0  0  0  0  0  0  0  0  0  0
    4.5102    1.9054    0.0000 C   0  0  0  0  0  0  0  0  0  0  0  0
    2.8648    2.0288    0.0000 C   0  0  0  0  0  0  0  0  0  0  0  0
    4.1523    2.6488    0.0000 C   0  0  0  0  0  0  0  0  0  0  0  0
    3.3296    2.7104    0.0000 C   0  0  0  0  0  0  0  0  0  0  0  0
  1 16  1  0
  2  6  1  0
  2  8  1  0
  2 11  1  0
  3  9  2  0
  3 10  1  0
  4  5  1  0
  4  8  2  0
  5 11  2  0
  6  7  2  0
  6 12  1  0
  7  9  1  0
  7 13  1  0
  8 10  1  0
  9 14  1  0
 11 17  1  0
 12 15  2  0
 13 16  2  0
 14 18  2  0
 14 19  1  0
 15 16  1  0
 18 20  1  0
 19 21  2  0
 20 22  2  0
 21 22  1  0
M  END
$$$$
