
     RDKit          2D

 30 32  0  0  1  0  0  0  0  0999 V2000
   12.2406   -9.9059    0.0000 S   0  0  0  0  0  0  0  0  0  0  0  0
   12.9551  -10.3184    0.0000 C   0  0  0  0  0  0  0  0  0  0  0  0
   12.9551  -11.1434    0.0000 C   0  0  0  0  0  0  0  0  0  0  0  0
   12.2406  -11.5559    0.0000 C   0  0  0  0  0  0  0  0  0  0  0  0
   11.5262  -10.3184    0.0000 C   0  0  0  0  0  0  0  0  0  0  0  0
   11.5262  -11.1434    0.0000 N   0  0  0  0  0  0  0  0  0  0  0  0
   10.7012  -11.1434    0.0000 C   0  0  0  0  0  0  0  0  0  0  0  0
   10.7012  -10.3184    0.0000 C   0  0  0  0  0  0  0  0  0  0  0  0
    9.9867  -11.5559    0.0000 O   0  0  0  0  0  0  0  0  0  0  0  0
   12.2406  -12.3809    0.0000 C   0  0  0  0  0  0  0  0  0  0  0  0
   12.9551  -12.7934    0.0000 O   0  0  0  0  0  0  0  0  0  0  0  0
   11.5262  -12.7934    0.0000 O   0  0  0  0  0  0  0  0  0  0  0  0
   13.6696  -11.5559    0.0000 C   0  0  0  0  0  0  0  0  0  0  0  0
   14.3841  -11.1434    0.0000 C   0  0  0  0  0  0  0  0  0  0  0  0
    9.9867   -9.9059    0.0000 N   0  0  0  0  0  0  0  0  0  0  0  0
    9.2722  -10.3184    0.0000 C   0  0  0  0  0  0  0  0  0  0  0  0
    8.5577   -9.9059    0.0000 C   0  0  0  0  0  0  0  0  0  0  0  0
    9.2722  -11.1434    0.0000 O   0  0  0  0  0  0  0  0  0  0  0  0
    7.8432  -10.3184    0.0000 C   0  0  0  0  0  0  0  0  0  0  0  0
    8.5577   -9.0809    0.0000 N   0  0  0  0  0  0  0  0  0  0  0  0
    9.2722   -8.6684    0.0000 O   0  0  0  0  0  0  0  0  0  0  0  0
    9.2722   -7.8434    0.0000 C   0  0  0  0  0  0  0  0  0  0  0  0
    9.9867   -7.4309    0.0000 C   0  0  0  0  0  0  0  0  0  0  0  0
   10.7012   -7.8434    0.0000 O   0  0  0  0  0  0  0  0  0  0  0  0
    9.9867   -6.6059    0.0000 O   0  0  0  0  0  0  0  0  0  0  0  0
    7.7570  -11.1389    0.0000 C   0  0  0  0  0  0  0  0  0  0  0  0
    6.9501  -11.3104    0.0000 S   0  0  0  0  0  0  0  0  0  0  0  0
    6.5376  -10.5959    0.0000 C   0  0  0  0  0  0  0  0  0  0  0  0
    7.0896   -9.9828    0.0000 N   0  0  0  0  0  0  0  0  0  0  0  0
    5.7170  -10.5097    0.0000 N   0  0  0  0  0  0  0  0  0  0  0  0
 13 14  2  3
  6  7  1  0
  8 15  1  1
  7  8  1  0
 15 16  1  0
  8  5  1  0
 16 17  1  0
  2  3  1  0
 16 18  2  0
  7  9  2  0
 17 19  1  0
  3  4  2  0
 17 20  2  0
  5  6  1  0
 20 21  1  0
 21 22  1  0
 10 11  1  0
 22 23  1  0
 10 12  2  0
 23 24  1  0
  4 10  1  0
 23 25  2  0
 19 26  2  0
  6  4  1  0
  5  1  1  1
  3 13  1  0
 26 27  1  0
 27 28  1  0
 28 29  2  0
 29 19  1  0
  1  2  1  0
 28 30  1  0
M  END
$$$$
