963
     RDKit          2D

 20 21  0  0  0  0  0  0  0  0999 V2000
    1.6500   -1.3654    0.0000 Br  0  0  0  0  0  0  0  0  0  0  0  0
    4.5080    1.1096    0.0000 O   0  0  0  0  0  0  0  0  0  0  0  0
    8.7949    0.2846    0.0000 O   0  0  0  0  0  0  0  0  0  0  0  0
    8.0804   -0.9529    0.0000 O   0  0  0  0  0  0  0  0  0  0  0  0
    5.9370    1.1096    0.0000 N   0  0  0  0  0  0  0  0  0  0  0  0
    6.6515   -0.1279    0.0000 C   0  0  0  0  0  0  0  0  0  0  0  0
    5.2224   -0.1279    0.0000 C   0  0  0  0  0  0  0  0  0  0  0  0
    5.9370    0.2846    0.0000 C   0  0  0  0  0  0  0  0  0  0  0  0
    7.3659    0.2846    0.0000 C   0  0  0  0  0  0  0  0  0  0  0  0
    6.6515   -0.9529    0.0000 C   0  0  0  0  0  0  0  0  0  0  0  0
    4.5080    0.2846    0.0000 C   0  0  0  0  0  0  0  0  0  0  0  0
    5.2224   -0.9529    0.0000 C   0  0  0  0  0  0  0  0  0  0  0  0
    3.7935   -0.1279    0.0000 C   0  0  0  0  0  0  0  0  0  0  0  0
    5.9370   -1.3654    0.0000 C   0  0  0  0  0  0  0  0  0  0  0  0
    3.7935   -0.9529    0.0000 C   0  0  0  0  0  0  0  0  0  0  0  0
    3.0791    0.2846    0.0000 C   0  0  0  0  0  0  0  0  0  0  0  0
    8.0804   -0.1279    0.0000 C   0  0  0  0  0  0  0  0  0  0  0  0
    3.0791   -1.3654    0.0000 C   0  0  0  0  0  0  0  0  0  0  0  0
    2.3645   -0.1279    0.0000 C   0  0  0  0  0  0  0  0  0  0  0  0
    2.3645   -0.9529    0.0000 C   0  0  0  0  0  0  0  0  0  0  0  0
  1 20  1  0
  2 11  2  0
  3 17  1  0
  4 17  2  0
  5  8  1  0
  6  8  2  0
  6  9  1  0
  6 10  1  0
  7  8  1  0
  7 11  1  0
  7 12  2  0
  9 17  1  0
 10 14  2  0
 11 13  1  0
 12 14  1  0
 13 15  2  0
 13 16  1  0
 15 18  1  0
 16 19  2  0
 18 20  2  0
 19 20  1  0
M  END
$$$$
