601
     RDKit          2D

 24 26  0  0  1  0  0  0  0  0999 V2000
    2.0883   -2.0559    0.0000 F   0  0  0  0  0  0  0  0  0  0  0  0
    3.9298    1.6887    0.0000 O   0  0  0  0  0  0  0  0  0  0  0  0
    3.5173   -4.5309    0.0000 O   0  0  0  0  0  0  0  0  0  0  0  0
    4.9693    0.6491    0.0000 O   0  0  0  0  0  0  0  0  0  0  0  0
    1.6500    3.6910    0.0000 O   0  0  0  0  0  0  0  0  0  0  0  0
    3.5173    0.4191    0.0000 N   0  0  0  0  0  0  0  0  0  0  0  0
    3.5173   -2.8809    0.0000 N   0  0  0  0  0  0  0  0  0  0  0  0
    2.9554    3.1098    0.0000 N   0  0  0  0  0  0  0  0  0  0  0  0
    3.1048    1.6887    0.0000 C   0  0  0  0  0  0  0  0  0  0  0  0
    2.8498    0.9040    0.0000 C   0  0  0  0  0  0  0  0  0  0  0  0
    4.2318   -3.2934    0.0000 C   0  0  0  0  0  0  0  0  0  0  0  0
    2.8028   -3.2934    0.0000 C   0  0  0  0  0  0  0  0  0  0  0  0
    3.5173   -0.4059    0.0000 C   0  0  0  0  0  0  0  0  0  0  0  0
    2.6199    2.3561    0.0000 C   0  0  0  0  0  0  0  0  0  0  0  0
    3.5173   -2.0559    0.0000 C   0  0  0  0  0  0  0  0  0  0  0  0
    4.2318   -4.1184    0.0000 C   0  0  0  0  0  0  0  0  0  0  0  0
    2.8028   -4.1184    0.0000 C   0  0  0  0  0  0  0  0  0  0  0  0
    4.1848    0.9040    0.0000 C   0  0  0  0  0  0  0  0  0  0  0  0
    2.8028   -0.8184    0.0000 C   0  0  0  0  0  0  0  0  0  0  0  0
    4.2318   -0.8184    0.0000 C   0  0  0  0  0  0  0  0  0  0  0  0
    2.8028   -1.6434    0.0000 C   0  0  0  0  0  0  0  0  0  0  0  0
    4.2318   -1.6434    0.0000 C   0  0  0  0  0  0  0  0  0  0  0  0
    2.4705    3.7772    0.0000 C   0  0  0  0  0  0  0  0  0  0  0  0
    2.8061    4.5309    0.0000 C   0  0  0  0  0  0  0  0  0  0  0  0
  1 21  1  0
  2  9  1  0
  2 18  1  0
  3 16  1  0
  3 17  1  0
  4 18  2  0
  5 23  2  0
  6 10  1  0
  6 13  1  0
  6 18  1  0
  7 11  1  0
  7 12  1  0
  7 15  1  0
  8 14  1  0
  8 23  1  0
  9 10  1  0
  9 14  1  6
 11 16  1  0
 12 17  1  0
 13 19  2  0
 13 20  1  0
 15 21  2  0
 15 22  1  0
 19 21  1  0
 20 22  2  0
 23 24  1  0
M  END
$$$$
