989
     RDKit          2D

 18 18  0  0  1  0  0  0  0  0999 V2000
    3.0791   -0.6188    0.0000 O   0  0  0  0  0  0  0  0  0  0  0  0
    3.7935   -1.8563    0.0000 O   0  0  0  0  0  0  0  0  0  0  0  0
    5.2224    2.2688    0.0000 N   0  0  0  0  0  0  0  0  0  0  0  0
    2.3645   -1.8563    0.0000 N   0  0  0  0  0  0  0  0  0  0  0  0
    4.5080    1.8563    0.0000 C   0  0  0  0  0  0  0  0  0  0  0  0
    4.5080    1.0313    0.0000 C   0  0  0  0  0  0  0  0  0  0  0  0
    3.7935    2.2688    0.0000 C   0  0  0  0  0  0  0  0  0  0  0  0
    3.7935    0.6188    0.0000 C   0  0  0  0  0  0  0  0  0  0  0  0
    5.2224    0.6188    0.0000 C   0  0  0  0  0  0  0  0  0  0  0  0
    5.2224    3.0938    0.0000 C   0  0  0  0  0  0  0  0  0  0  0  0
    5.9370    1.8563    0.0000 C   0  0  0  0  0  0  0  0  0  0  0  0
    3.7935   -0.2063    0.0000 C   0  0  0  0  0  0  0  0  0  0  0  0
    5.2224   -0.2063    0.0000 C   0  0  0  0  0  0  0  0  0  0  0  0
    4.5080   -0.6188    0.0000 C   0  0  0  0  0  0  0  0  0  0  0  0
    2.3645   -2.6813    0.0000 C   0  0  0  0  0  0  0  0  0  0  0  0
    3.0791   -1.4438    0.0000 C   0  0  0  0  0  0  0  0  0  0  0  0
    1.6500   -1.4438    0.0000 C   0  0  0  0  0  0  0  0  0  0  0  0
    1.6500   -3.0938    0.0000 C   0  0  0  0  0  0  0  0  0  0  0  0
  1 12  1  0
  1 16  1  0
  2 16  2  0
  5  3  1  0
  3 10  1  0
  3 11  1  0
  4 15  1  0
  4 16  1  0
  4 17  1  0
  5  6  1  0
  5  7  1  6
  6  8  2  0
  6  9  1  0
  8 12  1  0
  9 13  2  0
 12 14  2  0
 13 14  1  0
 15 18  1  0
M  END
$$$$
