720
     RDKit          2D

 11 10  0  0  0  0  0  0  0  0999 V2000
    2.8760    0.5977    0.0000 Cl  0  0  0  0  0  0  0  0  0  0  0  0
    3.7010   -0.8312    0.0000 Cl  0  0  0  0  0  0  0  0  0  0  0  0
    4.0031    0.2958    0.0000 P   0  0  0  0  0  0  0  0  0  0  0  0
    2.5741   -0.5292    0.0000 P   0  0  0  0  0  0  0  0  0  0  0  0
    4.7175    0.7083    0.0000 O   0  0  0  0  0  0  0  0  0  0  0  0
    3.5906    1.0102    0.0000 O   0  0  0  0  0  0  0  0  0  0  0  0
    1.8596   -0.9418    0.0000 O   0  0  0  0  0  0  0  0  0  0  0  0
    2.1615    0.1852    0.0000 O   0  0  0  0  0  0  0  0  0  0  0  0
    4.4156   -0.4187    0.0000 O   0  0  0  0  0  0  0  0  0  0  0  0
    2.9866   -1.2437    0.0000 O   0  0  0  0  0  0  0  0  0  0  0  0
    3.2885   -0.1167    0.0000 C   0  0  0  0  0  0  0  0  0  0  0  0
  1 11  1  0
  2 11  1  0
  3  5  1  0
  3  6  1  0
  3  9  2  0
  3 11  1  0
  4  7  1  0
  4  8  1  0
  4 10  2  0
  4 11  1  0
M  END
$$$$
