883
     RDKit          2D

 16 17  0  0  1  0  0  0  0  0999 V2000
    4.8295   -0.6610    0.0000 O   0  0  0  0  0  0  0  0  0  0  0  0
    3.2641    0.6703    0.0000 O   0  0  0  0  0  0  0  0  0  0  0  0
    5.0857    1.4511    0.0000 O   0  0  0  0  0  0  0  0  0  0  0  0
    3.0092   -1.4492    0.0000 O   0  0  0  0  0  0  0  0  0  0  0  0
    6.1494    2.4054    0.0000 O   0  0  0  0  0  0  0  0  0  0  0  0
    6.4441    1.0071    0.0000 O   0  0  0  0  0  0  0  0  0  0  0  0
    1.9472   -2.4054    0.0000 O   0  0  0  0  0  0  0  0  0  0  0  0
    1.6501   -1.0076    0.0000 O   0  0  0  0  0  0  0  0  0  0  0  0
    5.8930    1.6212    0.0000 N   0  0  0  0  0  0  0  0  0  0  0  0
    2.2021   -1.6208    0.0000 N   0  0  0  0  0  0  0  0  0  0  0  0
    4.0488    0.4154    0.0000 C   0  0  0  0  0  0  0  0  0  0  0  0
    4.0488   -0.4096    0.0000 C   0  0  0  0  0  0  0  0  0  0  0  0
    4.8295    0.6669    0.0000 C   0  0  0  0  0  0  0  0  0  0  0  0
    3.2641   -0.6646    0.0000 C   0  0  0  0  0  0  0  0  0  0  0  0
    5.3109    0.0029    0.0000 C   0  0  0  0  0  0  0  0  0  0  0  0
    2.7791    0.0029    0.0000 C   0  0  0  0  0  0  0  0  0  0  0  0
 12  1  1  6
  1 15  1  0
 11  2  1  6
  2 16  1  0
  3  9  1  0
 13  3  1  1
  4 10  1  0
 14  4  1  6
  5  9  1  0
  6  9  2  0
  7 10  1  0
  8 10  2  0
 11 12  1  0
 11 13  1  0
 12 14  1  0
 13 15  1  0
 14 16  1  0
M  CHG  4   5  -1   7  -1   9   1  10   1
M  END
$$$$
