900
     RDKit          2D

 17 19  0  0  1  0  0  0  0  0999 V2000
    3.6321    0.6079    0.0000 O   0  0  0  0  0  0  0  0  0  0  0  0
    4.4177    2.6717    0.0000 O   0  0  0  0  0  0  0  0  0  0  0  0
    2.3645   -3.1584    0.0000 O   0  0  0  0  0  0  0  0  0  0  0  0
    3.8596   -0.8446    0.0000 N   0  0  0  0  0  0  0  0  0  0  0  0
    2.3645   -0.6834    0.0000 N   0  0  0  0  0  0  0  0  0  0  0  0
    3.8596   -2.1724    0.0000 N   0  0  0  0  0  0  0  0  0  0  0  0
    1.6500   -1.9209    0.0000 N   0  0  0  0  0  0  0  0  0  0  0  0
    4.1158   -0.0604    0.0000 C   0  0  0  0  0  0  0  0  0  0  0  0
    4.9009    0.1932    0.0000 C   0  0  0  0  0  0  0  0  0  0  0  0
    4.9024    1.0182    0.0000 C   0  0  0  0  0  0  0  0  0  0  0  0
    4.1182    1.2745    0.0000 C   0  0  0  0  0  0  0  0  0  0  0  0
    3.8646    2.0596    0.0000 C   0  0  0  0  0  0  0  0  0  0  0  0
    3.0790   -1.0959    0.0000 C   0  0  0  0  0  0  0  0  0  0  0  0
    4.3411   -1.5084    0.0000 C   0  0  0  0  0  0  0  0  0  0  0  0
    3.0790   -1.9209    0.0000 C   0  0  0  0  0  0  0  0  0  0  0  0
    2.3645   -2.3334    0.0000 C   0  0  0  0  0  0  0  0  0  0  0  0
    1.6500   -1.0959    0.0000 C   0  0  0  0  0  0  0  0  0  0  0  0
  1  8  1  0
  1 11  1  0
  2 12  1  0
  3 16  2  0
  8  4  1  6
  4 13  1  0
  4 14  1  0
  5 13  1  0
  5 17  1  0
  6 14  2  0
  6 15  1  0
  7 16  1  0
  7 17  2  0
  8  9  1  0
  9 10  1  0
 10 11  1  0
 11 12  1  6
 13 15  2  0
 15 16  1  0
M  END
$$$$
