912
     RDKit          2D

 33 35  0  0  1  0  0  0  0  0999 V2000
    5.9370   -0.0495    0.0000 O   0  0  0  0  0  0  0  0  0  0  0  0
    3.0791    2.4256    0.0000 O   0  0  0  0  0  0  0  0  0  0  0  0
    5.2224    3.6631    0.0000 O   0  0  0  0  0  0  0  0  0  0  0  0
    3.7935    3.6631    0.0000 O   0  0  0  0  0  0  0  0  0  0  0  0
    7.3659   -2.5246    0.0000 N   0  0  0  0  0  0  0  0  0  0  0  0
    5.2224   -1.2870    0.0000 N   0  0  0  0  0  0  0  0  0  0  0  0
    6.6515   -2.9371    0.0000 C   0  0  0  0  0  0  0  0  0  0  0  0
    8.0804   -2.9371    0.0000 C   0  0  0  0  0  0  0  0  0  0  0  0
    6.6515   -3.7621    0.0000 C   0  0  0  0  0  0  0  0  0  0  0  0
    8.0804   -3.7621    0.0000 C   0  0  0  0  0  0  0  0  0  0  0  0
    7.3659   -4.1746    0.0000 C   0  0  0  0  0  0  0  0  0  0  0  0
    5.9370   -1.6995    0.0000 C   0  0  0  0  0  0  0  0  0  0  0  0
    7.3659   -1.6995    0.0000 C   0  0  0  0  0  0  0  0  0  0  0  0
    6.6515   -1.2870    0.0000 C   0  0  0  0  0  0  0  0  0  0  0  0
    5.9370   -2.5246    0.0000 C   0  0  0  0  0  0  0  0  0  0  0  0
    5.2224   -2.9371    0.0000 C   0  0  0  0  0  0  0  0  0  0  0  0
    8.0804   -1.2870    0.0000 C   0  0  0  0  0  0  0  0  0  0  0  0
    6.6515   -0.4620    0.0000 C   0  0  0  0  0  0  0  0  0  0  0  0
    5.2224   -3.7621    0.0000 C   0  0  0  0  0  0  0  0  0  0  0  0
    4.5080   -2.5246    0.0000 C   0  0  0  0  0  0  0  0  0  0  0  0
    8.0804   -0.4620    0.0000 C   0  0  0  0  0  0  0  0  0  0  0  0
    7.3659   -0.0495    0.0000 C   0  0  0  0  0  0  0  0  0  0  0  0
    5.2224   -0.4620    0.0000 C   0  0  0  0  0  0  0  0  0  0  0  0
    4.5080   -0.0495    0.0000 C   0  0  0  0  0  0  0  0  0  0  0  0
    4.5080    0.7755    0.0000 C   0  0  0  0  0  0  0  0  0  0  0  0
    3.7935    1.1880    0.0000 C   0  0  0  0  0  0  0  0  0  0  0  0
    5.2224    1.1880    0.0000 C   0  0  0  0  0  0  0  0  0  0  0  0
    3.7935    2.0130    0.0000 C   0  0  0  0  0  0  0  0  0  0  0  0
    5.2224    2.0130    0.0000 C   0  0  0  0  0  0  0  0  0  0  0  0
    4.5080    2.4256    0.0000 C   0  0  0  0  0  0  0  0  0  0  0  0
    4.5080    3.2506    0.0000 C   0  0  0  0  0  0  0  0  0  0  0  0
    2.3645    2.0130    0.0000 C   0  0  0  0  0  0  0  0  0  0  0  0
    1.6500    2.4256    0.0000 C   0  0  0  0  0  0  0  0  0  0  0  0
  1 23  2  0
  2 28  1  0
  2 32  1  0
  3 31  1  0
  4 31  2  0
  5  7  1  0
  5  8  1  0
  5 13  1  0
 12  6  1  0
  6 23  1  0
  7  9  1  0
  8 10  1  0
  9 11  1  0
 10 11  1  0
 12 14  1  0
 12 15  1  6
 13 14  1  0
 13 17  2  0
 14 18  2  0
 15 16  1  0
 16 19  1  0
 16 20  1  0
 17 21  1  0
 18 22  1  0
 21 22  2  0
 23 24  1  0
 24 25  1  0
 25 26  2  0
 25 27  1  0
 26 28  1  0
 27 29  2  0
 28 30  2  0
 29 30  1  0
 30 31  1  0
 32 33  1  0
M  END
$$$$
