402
     RDKit          2D

 27 30  0  0  1  0  0  0  0  0999 V2000
    7.6412   -1.8754    0.0000 Cl  0  0  0  0  0  0  0  0  0  0  0  0
    4.1159   -0.4273    0.0000 O   0  0  0  0  0  0  0  0  0  0  0  0
    2.7577    0.0166    0.0000 O   0  0  0  0  0  0  0  0  0  0  0  0
    4.1159   -3.3235    0.0000 O   0  0  0  0  0  0  0  0  0  0  0  0
    3.8213    0.9710    0.0000 N   0  0  0  0  0  0  0  0  0  0  0  0
    4.3339    2.5393    0.0000 N   0  0  0  0  0  0  0  0  0  0  0  0
    4.3412   -1.8754    0.0000 N   0  0  0  0  0  0  0  0  0  0  0  0
    2.3645   -1.0504    0.0000 N   0  0  0  0  0  0  0  0  0  0  0  0
    2.3645   -2.7004    0.0000 N   0  0  0  0  0  0  0  0  0  0  0  0
    5.5787   -2.5899    0.0000 N   0  0  0  0  0  0  0  0  0  0  0  0
    4.6286    1.1411    0.0000 C   0  0  0  0  0  0  0  0  0  0  0  0
    3.2703    1.5850    0.0000 C   0  0  0  0  0  0  0  0  0  0  0  0
    4.8848    1.9253    0.0000 C   0  0  0  0  0  0  0  0  0  0  0  0
    3.5266    2.3692    0.0000 C   0  0  0  0  0  0  0  0  0  0  0  0
    3.8597   -1.2115    0.0000 C   0  0  0  0  0  0  0  0  0  0  0  0
    3.5650    0.1868    0.0000 C   0  0  0  0  0  0  0  0  0  0  0  0
    4.5902    3.3235    0.0000 C   0  0  0  0  0  0  0  0  0  0  0  0
    3.0791   -1.4629    0.0000 C   0  0  0  0  0  0  0  0  0  0  0  0
    3.0791   -2.2879    0.0000 C   0  0  0  0  0  0  0  0  0  0  0  0
    3.8597   -2.5393    0.0000 C   0  0  0  0  0  0  0  0  0  0  0  0
    5.1662   -1.8754    0.0000 C   0  0  0  0  0  0  0  0  0  0  0  0
    5.5787   -1.1610    0.0000 C   0  0  0  0  0  0  0  0  0  0  0  0
    1.6500   -1.4629    0.0000 C   0  0  0  0  0  0  0  0  0  0  0  0
    1.6500   -2.2879    0.0000 C   0  0  0  0  0  0  0  0  0  0  0  0
    6.4037   -1.1610    0.0000 C   0  0  0  0  0  0  0  0  0  0  0  0
    6.4037   -2.5899    0.0000 C   0  0  0  0  0  0  0  0  0  0  0  0
    6.8162   -1.8754    0.0000 C   0  0  0  0  0  0  0  0  0  0  0  0
  1 27  1  0
 15  2  1  6
  2 16  1  0
  3 16  2  0
  4 20  2  0
  5 11  1  0
  5 12  1  0
  5 16  1  0
  6 13  1  0
  6 14  1  0
  6 17  1  0
  7 15  1  0
  7 20  1  0
  7 21  1  0
  8 18  2  0
  8 23  1  0
  9 19  2  0
  9 24  1  0
 10 21  2  0
 10 26  1  0
 11 13  1  0
 12 14  1  0
 15 18  1  0
 18 19  1  0
 19 20  1  0
 21 22  1  0
 22 25  2  0
 23 24  2  0
 25 27  1  0
 26 27  2  0
M  END
$$$$
