238
     RDKit          2D

 20 23  0  0  0  0  0  0  0  0999 V2000
    4.7984    2.0448    0.0000 O   0  0  0  0  0  0  0  0  0  0  0  0
    4.0281   -0.5055    0.0000 N   0  0  0  0  0  0  0  0  0  0  0  0
    3.6156    1.3017    0.0000 N   0  0  0  0  0  0  0  0  0  0  0  0
    2.6640   -0.7417    0.0000 N   0  0  0  0  0  0  0  0  0  0  0  0
    5.3921   -0.7417    0.0000 N   0  0  0  0  0  0  0  0  0  0  0  0
    4.0281   -1.3305    0.0000 C   0  0  0  0  0  0  0  0  0  0  0  0
    3.6156   -2.0448    0.0000 C   0  0  0  0  0  0  0  0  0  0  0  0
    4.4406   -2.0448    0.0000 C   0  0  0  0  0  0  0  0  0  0  0  0
    3.2849   -0.1476    0.0000 C   0  0  0  0  0  0  0  0  0  0  0  0
    4.7713   -0.1476    0.0000 C   0  0  0  0  0  0  0  0  0  0  0  0
    3.1013    0.6566    0.0000 C   0  0  0  0  0  0  0  0  0  0  0  0
    4.9549    0.6566    0.0000 C   0  0  0  0  0  0  0  0  0  0  0  0
    2.2842    0.9226    0.0000 C   0  0  0  0  0  0  0  0  0  0  0  0
    4.4406    1.3017    0.0000 C   0  0  0  0  0  0  0  0  0  0  0  0
    5.7719    0.9225    0.0000 C   0  0  0  0  0  0  0  0  0  0  0  0
    1.6498    0.3430    0.0000 C   0  0  0  0  0  0  0  0  0  0  0  0
    1.8410   -0.4948    0.0000 C   0  0  0  0  0  0  0  0  0  0  0  0
    6.2151   -0.4948    0.0000 C   0  0  0  0  0  0  0  0  0  0  0  0
    2.1100    1.7288    0.0000 C   0  0  0  0  0  0  0  0  0  0  0  0
    6.4064    0.3430    0.0000 C   0  0  0  0  0  0  0  0  0  0  0  0
  1 14  2  0
  2  6  1  0
  2  9  1  0
  2 10  1  0
  3 11  1  0
  3 14  1  0
  4  9  1  0
  4 17  2  0
  5 10  2  0
  5 18  1  0
  6  7  1  0
  6  8  1  0
  7  8  1  0
  9 11  2  0
 10 12  1  0
 11 13  1  0
 12 14  1  0
 12 15  2  0
 13 16  2  0
 13 19  1  0
 15 20  1  0
 16 17  1  0
 18 20  2  0
M  END
$$$$
