629
     RDKit          2D

 14 14  0  0  0  0  0  0  0  0999 V2000
    4.5079   -0.9529    0.0000 Cl  0  0  0  0  0  0  0  0  0  0  0  0
    1.6500   -0.9529    0.0000 Cl  0  0  0  0  0  0  0  0  0  0  0  0
    3.7934    0.2846    0.0000 N   0  0  0  0  0  0  0  0  0  0  0  0
    3.7934    1.1096    0.0000 N   0  0  0  0  0  0  0  0  0  0  0  0
    4.5079    2.3471    0.0000 N   0  0  0  0  0  0  0  0  0  0  0  0
    5.2223    1.1096    0.0000 N   0  0  0  0  0  0  0  0  0  0  0  0
    3.0790   -0.9529    0.0000 C   0  0  0  0  0  0  0  0  0  0  0  0
    3.7934   -1.3654    0.0000 C   0  0  0  0  0  0  0  0  0  0  0  0
    2.3645   -1.3654    0.0000 C   0  0  0  0  0  0  0  0  0  0  0  0
    3.7934   -2.1904    0.0000 C   0  0  0  0  0  0  0  0  0  0  0  0
    2.3645   -2.1904    0.0000 C   0  0  0  0  0  0  0  0  0  0  0  0
    3.0790   -2.6029    0.0000 C   0  0  0  0  0  0  0  0  0  0  0  0
    3.0790   -0.1279    0.0000 C   0  0  0  0  0  0  0  0  0  0  0  0
    4.5079    1.5221    0.0000 C   0  0  0  0  0  0  0  0  0  0  0  0
  1  8  1  0
  2  9  1  0
  3  4  1  0
  3 13  2  3
  4 14  2  0
  5 14  1  0
  6 14  1  0
  7  8  2  0
  7  9  1  0
  7 13  1  0
  8 10  1  0
  9 11  2  0
 10 12  2  0
 11 12  1  0
M  END
$$$$
