885
     RDKit          2D

 17 19  0  0  0  0  0  0  0  0999 V2000
    4.3846   -1.3471    0.0000 O   0  0  0  0  0  0  0  0  0  0  0  0
    5.0992   -0.1096    0.0000 N   0  0  0  0  0  0  0  0  0  0  0  0
    4.3846    1.1279    0.0000 N   0  0  0  0  0  0  0  0  0  0  0  0
    2.8694   -1.3426    0.0000 N   0  0  0  0  0  0  0  0  0  0  0  0
    2.2020   -0.1865    0.0000 N   0  0  0  0  0  0  0  0  0  0  0  0
    2.0625   -1.5141    0.0000 N   0  0  0  0  0  0  0  0  0  0  0  0
    1.6500   -0.7997    0.0000 N   0  0  0  0  0  0  0  0  0  0  0  0
    5.0992    0.7154    0.0000 C   0  0  0  0  0  0  0  0  0  0  0  0
    5.8366    1.1565    0.0000 C   0  0  0  0  0  0  0  0  0  0  0  0
    4.3846   -0.5221    0.0000 C   0  0  0  0  0  0  0  0  0  0  0  0
    3.6702   -0.1096    0.0000 C   0  0  0  0  0  0  0  0  0  0  0  0
    5.8366   -0.5507    0.0000 C   0  0  0  0  0  0  0  0  0  0  0  0
    6.5842    0.7325    0.0000 C   0  0  0  0  0  0  0  0  0  0  0  0
    3.6702    0.7154    0.0000 C   0  0  0  0  0  0  0  0  0  0  0  0
    6.5842   -0.1268    0.0000 C   0  0  0  0  0  0  0  0  0  0  0  0
    5.8271    1.9814    0.0000 C   0  0  0  0  0  0  0  0  0  0  0  0
    2.9557   -0.5221    0.0000 C   0  0  0  0  0  0  0  0  0  0  0  0
  1 10  2  0
  2  8  1  0
  2 10  1  0
  2 12  1  0
  3  8  2  0
  3 14  1  0
  4  6  1  0
  4 17  2  0
  5  7  2  0
  5 17  1  0
  6  7  1  0
  8  9  1  0
  9 13  2  0
  9 16  1  0
 10 11  1  0
 11 14  2  0
 11 17  1  0
 12 15  2  0
 13 15  1  0
M  END
$$$$
