
     RDKit          2D

 20 23  0  0  1  0  0  0  0  0999 V2000
   -0.7199    1.2077    0.0000 C   0  0  0  0  0  0  0  0  0  0  0  0
    4.8293   -0.2059    0.0000 C   0  0  0  0  0  0  0  0  0  0  0  0
    2.6760    0.6262    0.0000 C   0  0  0  0  0  0  0  0  0  0  0  0
    2.7574   -0.1946    0.0000 C   0  0  0  0  0  0  0  0  0  0  0  0
    1.8460    1.0527    0.0000 C   0  0  0  0  0  0  0  0  0  0  0  0
    2.7490    1.1348    0.0000 C   0  0  0  0  0  0  0  0  0  0  0  0
    3.4424    0.6879    0.0000 C   0  0  0  0  0  0  0  0  0  0  0  0
    2.0871   -0.6756    0.0000 C   0  0  0  0  0  0  0  0  0  0  0  0
    0.5397   -0.5800    0.0000 C   0  0  0  0  0  0  0  0  0  0  0  0
   -0.0144    0.0311    0.0000 C   0  0  0  0  0  0  0  0  0  0  0  0
    1.4610    1.3689    0.0000 C   0  0  0  0  0  0  0  0  0  0  0  0
    2.6683   -0.5131    0.0000 C   0  0  0  0  0  0  0  0  0  0  0  0
    2.0152    0.7578    0.0000 C   0  0  0  0  0  0  0  0  0  0  0  0
    3.4021   -0.1360    0.0000 C   0  0  0  0  0  0  0  0  0  0  0  0
    1.2541    0.4853    0.0000 C   0  0  0  0  0  0  0  0  0  0  0  0
    1.9749   -0.0662    0.0000 C   0  0  0  0  0  0  0  0  0  0  0  0
    0.6370    1.4093    0.0000 C   0  0  0  0  0  0  0  0  0  0  0  0
    1.3354   -0.3356    0.0000 C   0  0  0  0  0  0  0  0  0  0  0  0
    0.0258    0.8551    0.0000 N   0  0  0  0  0  0  0  0  0  0  0  0
    4.0955   -0.5829    0.0000 O   0  0  0  0  0  0  0  0  0  0  0  0
  4  3  1  0
  5  3  1  0
  7  6  1  0
  8  4  1  0
 10  9  1  0
 13  6  2  0
 13 11  1  0
 14  7  2  0
 14 12  1  0
 15  5  1  1
 16 12  2  0
 16 13  1  0
 17 11  1  1
 17 15  1  0
 18  8  1  6
 18  9  1  0
 18 15  1  0
 18 16  1  0
 19  1  1  0
 19 10  1  0
 19 17  1  0
 20  2  1  0
 20 14  1  0
M  END
$$$$
