438
     RDKit          2D

 37 40  0  0  1  0  0  0  0  0999 V2000
    5.2223    0.6701    0.0000 S   0  0  0  0  0  0  0  0  0  0  0  0
   10.8605    0.2613    0.0000 S   0  0  0  0  0  0  0  0  0  0  0  0
    7.3508    2.4956    0.0000 O   0  0  0  0  0  0  0  0  0  0  0  0
    4.5079    3.5576    0.0000 O   0  0  0  0  0  0  0  0  0  0  0  0
    5.9369    3.5576    0.0000 O   0  0  0  0  0  0  0  0  0  0  0  0
    8.3633    1.5030    0.0000 O   0  0  0  0  0  0  0  0  0  0  0  0
    7.7178   -0.8864    0.0000 O   0  0  0  0  0  0  0  0  0  0  0  0
    7.8697   -3.0638    0.0000 O   0  0  0  0  0  0  0  0  0  0  0  0
    6.4902   -2.6911    0.0000 O   0  0  0  0  0  0  0  0  0  0  0  0
    5.9369    1.9076    0.0000 N   0  0  0  0  0  0  0  0  0  0  0  0
    7.3508    0.4947    0.0000 N   0  0  0  0  0  0  0  0  0  0  0  0
    3.0790    1.9076    0.0000 N   0  0  0  0  0  0  0  0  0  0  0  0
    8.5152   -0.6745    0.0000 N   0  0  0  0  0  0  0  0  0  0  0  0
    9.8248    1.1034    0.0000 N   0  0  0  0  0  0  0  0  0  0  0  0
   11.1692    1.6987    0.0000 N   0  0  0  0  0  0  0  0  0  0  0  0
    5.9369    1.0826    0.0000 C   0  0  0  0  0  0  0  0  0  0  0  0
    6.7686    1.0792    0.0000 C   0  0  0  0  0  0  0  0  0  0  0  0
    6.7686    1.9110    0.0000 C   0  0  0  0  0  0  0  0  0  0  0  0
    5.2223    2.3201    0.0000 C   0  0  0  0  0  0  0  0  0  0  0  0
    4.5079    1.9076    0.0000 C   0  0  0  0  0  0  0  0  0  0  0  0
    4.5079    1.0826    0.0000 C   0  0  0  0  0  0  0  0  0  0  0  0
    3.7934    2.3201    0.0000 C   0  0  0  0  0  0  0  0  0  0  0  0
    5.2223    3.1451    0.0000 C   0  0  0  0  0  0  0  0  0  0  0  0
    8.1481    0.7065    0.0000 C   0  0  0  0  0  0  0  0  0  0  0  0
    8.7303    0.1219    0.0000 C   0  0  0  0  0  0  0  0  0  0  0  0
    3.0790    1.0826    0.0000 C   0  0  0  0  0  0  0  0  0  0  0  0
    2.3644    2.3201    0.0000 C   0  0  0  0  0  0  0  0  0  0  0  0
    9.5276    0.3339    0.0000 C   0  0  0  0  0  0  0  0  0  0  0  0
    2.3644    0.6701    0.0000 C   0  0  0  0  0  0  0  0  0  0  0  0
    1.6500    1.9076    0.0000 C   0  0  0  0  0  0  0  0  0  0  0  0
    1.6500    1.0826    0.0000 C   0  0  0  0  0  0  0  0  0  0  0  0
    7.5026   -1.6828    0.0000 C   0  0  0  0  0  0  0  0  0  0  0  0
   10.1677   -0.1866    0.0000 C   0  0  0  0  0  0  0  0  0  0  0  0
    6.7062   -1.4677    0.0000 C   0  0  0  0  0  0  0  0  0  0  0  0
    8.2991   -1.8980    0.0000 C   0  0  0  0  0  0  0  0  0  0  0  0
    7.2875   -2.4793    0.0000 C   0  0  0  0  0  0  0  0  0  0  0  0
   10.6487    1.0586    0.0000 C   0  0  0  0  0  0  0  0  0  0  0  0
 16  1  1  1
  1 21  1  0
  2 33  1  0
  2 37  1  0
  3 18  2  0
  4 23  1  0
  5 23  2  0
  6 24  2  0
  7 13  1  0
  7 32  1  0
  8 36  1  0
  9 36  2  0
 10 16  1  0
 10 18  1  0
 10 19  1  0
 17 11  1  1
 11 24  1  0
 12 22  1  0
 12 26  2  0
 12 27  1  0
 13 25  2  0
 14 28  1  0
 14 37  2  0
 15 37  1  0
 16 17  1  0
 17 18  1  0
 19 20  2  0
 19 23  1  0
 20 21  1  0
 20 22  1  0
 24 25  1  0
 25 28  1  0
 26 29  1  0
 27 30  2  0
 28 33  2  0
 29 31  2  0
 30 31  1  0
 32 34  1  0
 32 35  1  0
 32 36  1  0
M  CHG  2   4  -1  12   1
M  END
$$$$
