
     RDKit          2D

 35 37  0  0  0  0  0  0  0  0999 V2000
   -3.2150    1.4351    0.0000 C   0  0  0  0  0  0  0  0  0  0  0  0
   -3.2161    2.2605    0.0000 N   0  0  0  0  0  0  0  0  0  0  0  0
   -1.7834    1.4389    0.0000 C   0  0  0  0  0  0  0  0  0  0  0  0
   -1.0676    1.0251    0.0000 C   0  0  0  0  0  0  0  0  0  0  0  0
   -0.3529    1.4408    0.0000 C   0  0  0  0  0  0  0  0  0  0  0  0
    0.3587    1.0270    0.0000 C   0  0  0  0  0  0  0  0  0  0  0  0
    1.0734    1.4426    0.0000 C   0  0  0  0  0  0  0  0  0  0  0  0
    1.7892    1.0289    0.0000 N   0  0  0  0  0  0  0  0  0  0  0  0
    1.0723    2.2679    0.0000 O   0  0  0  0  0  0  0  0  0  0  0  0
    1.7846    0.2056    0.0000 C   0  0  0  0  0  0  0  0  0  0  0  0
    2.4962   -0.2038    0.0000 C   0  0  0  0  0  0  0  0  0  0  0  0
    3.2133    0.2041    0.0000 C   0  0  0  0  0  0  0  0  0  0  0  0
    3.2142    1.0303    0.0000 C   0  0  0  0  0  0  0  0  0  0  0  0
    2.4979    1.4485    0.0000 C   0  0  0  0  0  0  0  0  0  0  0  0
    2.4955    2.2738    0.0000 C   0  0  0  0  0  0  0  0  0  0  0  0
    3.2095    2.6864    0.0000 O   0  0  0  0  0  0  0  0  0  0  0  0
    3.9276   -0.2082    0.0000 C   0  0  0  0  0  0  0  0  0  0  0  0
   -0.3505   -0.2141    0.0000 S   0  0  0  0  0  0  0  0  0  0  0  0
   -0.3494   -1.0392    0.0000 C   0  0  0  0  0  0  0  0  0  0  0  0
   -0.7727    0.5047    0.0000 O   0  0  0  0  0  0  0  0  0  0  0  0
   -1.1792   -0.2086    0.0000 O   0  0  0  0  0  0  0  0  0  0  0  0
   -1.0654   -1.4522    0.0000 C   0  0  0  0  0  0  0  0  0  0  0  0
   -1.0647   -2.2766    0.0000 C   0  0  0  0  0  0  0  0  0  0  0  0
   -0.3484   -2.6869    0.0000 C   0  0  0  0  0  0  0  0  0  0  0  0
    0.3603   -1.4479    0.0000 C   0  0  0  0  0  0  0  0  0  0  0  0
    0.3633   -2.2694    0.0000 C   0  0  0  0  0  0  0  0  0  0  0  0
    1.0731   -2.6732    0.0000 C   0  0  0  0  0  0  0  0  0  0  0  0
    1.7841   -2.2640    0.0000 C   0  0  0  0  0  0  0  0  0  0  0  0
    1.7809   -1.4424    0.0000 C   0  0  0  0  0  0  0  0  0  0  0  0
    2.5003   -2.6728    0.0000 C   0  0  0  0  0  0  0  0  0  0  0  0
   -2.4981    1.0268    0.0000 N   0  0  0  0  0  0  0  0  0  0  0  0
   -3.9276    1.0242    0.0000 N   0  0  0  0  0  0  0  0  0  0  0  0
    1.7812    2.6869    0.0000 O   0  0  0  0  0  0  0  0  0  0  0  0
    0.3619    0.2019    0.0000 N   0  0  0  0  0  0  0  0  0  0  0  0
    1.0689   -1.0255    0.0000 N   0  0  0  0  0  0  0  0  0  0  0  0
  3  4  1  0
  4  5  1  0
  6  5  1  1
  6  7  1  0
  7  8  1  0
  7  9  2  0
  8 10  1  0
  8 14  1  0
 10 11  1  0
 11 12  1  0
 12 13  1  0
 13 14  1  0
 14 15  1  1
 15 16  2  0
 12 17  1  6
 18 19  1  0
 18 20  2  0
 18 21  2  0
 19 22  2  0
 22 23  1  0
 23 24  2  0
 24 26  1  0
 25 19  1  0
 25 26  2  0
 26 27  1  0
 27 28  1  0
 28 29  1  0
 28 30  1  0
  1  2  2  3
 31  1  1  0
 31  3  1  0
 15 33  1  0
  6 34  1  0
 34 18  1  0
  1 32  1  0
 25 35  1  0
 29 35  1  0
M  END
$$$$
