559
     RDKit          2D

 39 42  0  0  0  0  0  0  0  0999 V2000
    5.9370    1.4207    0.0000 S   0  0  0  0  0  0  0  0  0  0  0  0
    6.3495    0.7062    0.0000 O   0  0  0  0  0  0  0  0  0  0  0  0
    5.5245    2.1351    0.0000 O   0  0  0  0  0  0  0  0  0  0  0  0
    3.7935    0.1832    0.0000 O   0  0  0  0  0  0  0  0  0  0  0  0
    3.7935   -1.4669    0.0000 O   0  0  0  0  0  0  0  0  0  0  0  0
    2.3645    1.0082    0.0000 O   0  0  0  0  0  0  0  0  0  0  0  0
    3.0791   -3.5294    0.0000 O   0  0  0  0  0  0  0  0  0  0  0  0
    5.2224    1.0082    0.0000 N   0  0  0  0  0  0  0  0  0  0  0  0
    5.9370   -0.2294    0.0000 N   0  0  0  0  0  0  0  0  0  0  0  0
    5.2224   -1.4669    0.0000 N   0  0  0  0  0  0  0  0  0  0  0  0
    7.3659   -1.0544    0.0000 N   0  0  0  0  0  0  0  0  0  0  0  0
    6.6515   -2.2919    0.0000 N   0  0  0  0  0  0  0  0  0  0  0  0
    8.7949    3.0707    0.0000 C   0  0  0  0  0  0  0  0  0  0  0  0
    8.0804    2.6582    0.0000 C   0  0  0  0  0  0  0  0  0  0  0  0
    9.5094    3.4832    0.0000 C   0  0  0  0  0  0  0  0  0  0  0  0
    8.3824    3.7852    0.0000 C   0  0  0  0  0  0  0  0  0  0  0  0
    9.2075    2.3563    0.0000 C   0  0  0  0  0  0  0  0  0  0  0  0
    8.0804    1.8332    0.0000 C   0  0  0  0  0  0  0  0  0  0  0  0
    7.3659    3.0707    0.0000 C   0  0  0  0  0  0  0  0  0  0  0  0
    6.6515    1.8332    0.0000 C   0  0  0  0  0  0  0  0  0  0  0  0
    7.3659    1.4207    0.0000 C   0  0  0  0  0  0  0  0  0  0  0  0
    6.6515    2.6582    0.0000 C   0  0  0  0  0  0  0  0  0  0  0  0
    5.2224    0.1832    0.0000 C   0  0  0  0  0  0  0  0  0  0  0  0
    4.5080   -0.2294    0.0000 C   0  0  0  0  0  0  0  0  0  0  0  0
    4.5080   -1.0544    0.0000 C   0  0  0  0  0  0  0  0  0  0  0  0
    5.9370   -1.0544    0.0000 C   0  0  0  0  0  0  0  0  0  0  0  0
    3.0791   -0.2294    0.0000 C   0  0  0  0  0  0  0  0  0  0  0  0
    6.6515   -1.4669    0.0000 C   0  0  0  0  0  0  0  0  0  0  0  0
    3.7935   -2.2919    0.0000 C   0  0  0  0  0  0  0  0  0  0  0  0
    2.3645    0.1832    0.0000 C   0  0  0  0  0  0  0  0  0  0  0  0
    3.0791   -1.0544    0.0000 C   0  0  0  0  0  0  0  0  0  0  0  0
    1.6500   -0.2294    0.0000 C   0  0  0  0  0  0  0  0  0  0  0  0
    3.0791   -2.7044    0.0000 C   0  0  0  0  0  0  0  0  0  0  0  0
    2.3645   -1.4669    0.0000 C   0  0  0  0  0  0  0  0  0  0  0  0
    1.6500   -1.0544    0.0000 C   0  0  0  0  0  0  0  0  0  0  0  0
    8.0804   -1.4669    0.0000 C   0  0  0  0  0  0  0  0  0  0  0  0
    7.3659   -2.7044    0.0000 C   0  0  0  0  0  0  0  0  0  0  0  0
    8.0804   -2.2919    0.0000 C   0  0  0  0  0  0  0  0  0  0  0  0
    1.6500    1.4207    0.0000 C   0  0  0  0  0  0  0  0  0  0  0  0
  1  2  2  0
  1  3  2  0
  1  8  1  0
  1 20  1  0
  4 24  1  0
  4 27  1  0
  5 25  1  0
  5 29  1  0
  6 30  1  0
  6 39  1  0
  7 33  1  0
  8 23  1  0
  9 23  2  0
  9 26  1  0
 10 25  1  0
 10 26  2  0
 11 28  2  0
 11 36  1  0
 12 28  1  0
 12 37  2  0
 13 14  1  0
 13 15  1  0
 13 16  1  0
 13 17  1  0
 14 18  2  0
 14 19  1  0
 18 21  1  0
 19 22  2  0
 20 21  2  0
 20 22  1  0
 23 24  1  0
 24 25  2  0
 26 28  1  0
 27 30  2  0
 27 31  1  0
 29 33  1  0
 30 32  1  0
 31 34  2  0
 32 35  2  0
 34 35  1  0
 36 38  2  0
 37 38  1  0
M  END
$$$$
