487
     RDKit          2D

 24 26  0  0  0  0  0  0  0  0999 V2000
    7.1488    1.0653    0.0000 F   0  0  0  0  0  0  0  0  0  0  0  0
    4.2364    1.8704    0.0000 O   0  0  0  0  0  0  0  0  0  0  0  0
    2.0930    0.6329    0.0000 O   0  0  0  0  0  0  0  0  0  0  0  0
    2.8075    1.8704    0.0000 O   0  0  0  0  0  0  0  0  0  0  0  0
    7.1488   -0.6246    0.0000 N   0  0  0  0  0  0  0  0  0  0  0  0
    8.5746   -1.4551    0.0000 N   0  0  0  0  0  0  0  0  0  0  0  0
    4.2364   -0.6046    0.0000 N   0  0  0  0  0  0  0  0  0  0  0  0
    7.1456   -1.4496    0.0000 C   0  0  0  0  0  0  0  0  0  0  0  0
    7.8649   -0.2148    0.0000 C   0  0  0  0  0  0  0  0  0  0  0  0
    7.8585   -1.8648    0.0000 C   0  0  0  0  0  0  0  0  0  0  0  0
    8.5778   -0.6301    0.0000 C   0  0  0  0  0  0  0  0  0  0  0  0
    6.4359   -0.2093    0.0000 C   0  0  0  0  0  0  0  0  0  0  0  0
    4.9509   -0.1921    0.0000 C   0  0  0  0  0  0  0  0  0  0  0  0
    5.6884   -0.6333    0.0000 C   0  0  0  0  0  0  0  0  0  0  0  0
    9.2874   -1.8704    0.0000 C   0  0  0  0  0  0  0  0  0  0  0  0
    6.4359    0.6500    0.0000 C   0  0  0  0  0  0  0  0  0  0  0  0
    4.9509    0.6329    0.0000 C   0  0  0  0  0  0  0  0  0  0  0  0
    5.6884    1.0739    0.0000 C   0  0  0  0  0  0  0  0  0  0  0  0
    4.2364   -1.4297    0.0000 C   0  0  0  0  0  0  0  0  0  0  0  0
    4.2364    1.0454    0.0000 C   0  0  0  0  0  0  0  0  0  0  0  0
    3.5220   -0.1921    0.0000 C   0  0  0  0  0  0  0  0  0  0  0  0
    3.5220    0.6329    0.0000 C   0  0  0  0  0  0  0  0  0  0  0  0
    3.5220   -1.8422    0.0000 C   0  0  0  0  0  0  0  0  0  0  0  0
    2.8075    1.0454    0.0000 C   0  0  0  0  0  0  0  0  0  0  0  0
  1 16  1  0
  2 20  2  0
  3 24  1  0
  4 24  2  0
  5  8  1  0
  5  9  1  0
  5 12  1  0
  6 10  1  0
  6 11  1  0
  6 15  1  0
  7 13  1  0
  7 19  1  0
  7 21  1  0
  8 10  1  0
  9 11  1  0
 12 14  1  0
 12 16  2  0
 13 14  2  0
 13 17  1  0
 16 18  1  0
 17 18  2  0
 17 20  1  0
 19 23  1  0
 20 22  1  0
 21 22  2  0
 22 24  1  0
M  END
$$$$
