2733
     RDKit          2D

 11 12  0  0  0  0  0  0  0  0999 V2000
    1.6500    0.6625    0.0000 Cl  0  0  0  0  0  0  0  0  0  0  0  0
    4.5741   -0.8265    0.0000 O   0  0  0  0  0  0  0  0  0  0  0  0
    5.8806   -0.1625    0.0000 O   0  0  0  0  0  0  0  0  0  0  0  0
    4.5741    0.5014    0.0000 N   0  0  0  0  0  0  0  0  0  0  0  0
    3.7935    0.2500    0.0000 C   0  0  0  0  0  0  0  0  0  0  0  0
    3.7935   -0.5750    0.0000 C   0  0  0  0  0  0  0  0  0  0  0  0
    3.0789    0.6625    0.0000 C   0  0  0  0  0  0  0  0  0  0  0  0
    3.0789   -0.9875    0.0000 C   0  0  0  0  0  0  0  0  0  0  0  0
    2.3645    0.2500    0.0000 C   0  0  0  0  0  0  0  0  0  0  0  0
    5.0556   -0.1625    0.0000 C   0  0  0  0  0  0  0  0  0  0  0  0
    2.3645   -0.5750    0.0000 C   0  0  0  0  0  0  0  0  0  0  0  0
  1  9  1  0
  2  6  1  0
  2 10  1  0
  3 10  2  0
  4  5  1  0
  4 10  1  0
  5  6  2  0
  5  7  1  0
  6  8  1  0
  7  9  2  0
  8 11  2  0
  9 11  1  0
M  END
$$$$
