       
     RDKit          2D

 35 38  0  0  0  0  0  0  0  0999 V2000
   28.9897  -19.5151    0.0000 C   0  0  0  0  0  0  0  0  0  0  0  0
   28.9897  -20.3516    0.0000 C   0  0  0  0  0  0  0  0  0  0  0  0
   29.7007  -20.7698    0.0000 C   0  0  0  0  0  0  0  0  0  0  0  0
   30.4535  -20.3516    0.0000 C   0  0  0  0  0  0  0  0  0  0  0  0
   30.4535  -19.5151    0.0000 C   0  0  0  0  0  0  0  0  0  0  0  0
   29.7007  -19.0969    0.0000 C   0  0  0  0  0  0  0  0  0  0  0  0
   31.8755  -20.3516    0.0000 C   0  0  0  0  0  0  0  0  0  0  0  0
   31.8755  -19.5151    0.0000 C   0  0  0  0  0  0  0  0  0  0  0  0
   31.1646  -19.0969    0.0000 C   0  0  0  0  0  0  0  0  0  0  0  0
   32.6284  -20.7698    0.0000 C   0  0  0  0  0  0  0  0  0  0  0  0
   33.3394  -20.3516    0.0000 C   0  0  0  0  0  0  0  0  0  0  0  0
   33.3394  -19.5151    0.0000 C   0  0  0  0  0  0  0  0  0  0  0  0
   32.6284  -19.0969    0.0000 C   0  0  0  0  0  0  0  0  0  0  0  0
   31.1646  -18.2604    0.0000 C   0  0  0  0  0  0  0  0  0  0  0  0
   31.8755  -17.8421    0.0000 C   0  0  0  0  0  0  0  0  0  0  0  0
   31.8755  -17.0056    0.0000 C   0  0  0  0  0  0  0  0  0  0  0  0
   31.1646  -16.5873    0.0000 N   0  0  0  0  0  0  0  0  0  0  0  0
   30.4535  -17.0056    0.0000 C   0  0  0  0  0  0  0  0  0  0  0  0
   30.4535  -17.8421    0.0000 C   0  0  0  0  0  0  0  0  0  0  0  0
   30.4535  -18.6786    0.0000 O   0  0  0  0  0  0  0  0  0  0  0  0
   31.1646  -15.7509    0.0000 C   0  0  0  0  0  0  0  0  0  0  0  0
   31.9174  -15.3326    0.0000 C   0  0  0  0  0  0  0  0  0  0  0  0
   32.6284  -15.7509    0.0000 C   0  0  0  0  0  0  0  0  0  0  0  0
   33.3394  -15.3326    0.0000 C   0  0  0  0  0  0  0  0  0  0  0  0
   34.0505  -15.7509    0.0000 C   0  0  0  0  0  0  0  0  0  0  0  0
   33.3394  -14.4962    0.0000 O   0  0  0  0  0  0  0  0  0  0  0  0
   34.0505  -16.5873    0.0000 C   0  0  0  0  0  0  0  0  0  0  0  0
   34.7614  -17.0056    0.0000 C   0  0  0  0  0  0  0  0  0  0  0  0
   35.4725  -16.5873    0.0000 C   0  0  0  0  0  0  0  0  0  0  0  0
   35.4725  -15.7509    0.0000 C   0  0  0  0  0  0  0  0  0  0  0  0
   34.7614  -15.3326    0.0000 C   0  0  0  0  0  0  0  0  0  0  0  0
   36.2253  -17.0056    0.0000 C   0  0  0  0  0  0  0  0  0  0  0  0
   36.9363  -17.4238    0.0000 C   0  0  0  0  0  0  0  0  0  0  0  0
   35.8070  -17.7585    0.0000 C   0  0  0  0  0  0  0  0  0  0  0  0
   36.6435  -16.2946    0.0000 C   0  0  0  0  0  0  0  0  0  0  0  0
  1  2  2  0
  2  3  1  0
  3  4  2  0
  4  5  1  0
  5  6  2  0
  1  6  1  0
  7  8  2  0
  8  9  1  0
  5  9  1  0
  7 10  1  0
 10 11  2  0
 11 12  1  0
 12 13  2  0
  8 13  1  0
  9 14  1  0
 14 15  1  0
 15 16  1  0
 16 17  1  0
 17 18  1  0
 18 19  1  0
 14 19  1  0
  9 20  1  0
 17 21  1  0
 21 22  1  0
 22 23  1  0
 23 24  1  0
 24 25  1  0
 24 26  1  0
 25 27  2  0
 27 28  1  0
 28 29  2  0
 29 30  1  0
 30 31  2  0
 25 31  1  0
 29 32  1  0
 32 33  1  0
 32 34  1  0
 32 35  1  0
M  END
$$$$
