
     RDKit          2D

 29 31  0  0  0  0  0  0  0  0999 V2000
   -4.2636   -0.8271    0.0000 C   0  0  0  0  0  0  0  0  0  0  0  0
   -4.2636   -1.6543    0.0000 C   0  0  0  0  0  0  0  0  0  0  0  0
   -3.5643   -2.0635    0.0000 C   0  0  0  0  0  0  0  0  0  0  0  0
   -2.8139   -1.6543    0.0000 C   0  0  0  0  0  0  0  0  0  0  0  0
   -2.8139   -0.8271    0.0000 C   0  0  0  0  0  0  0  0  0  0  0  0
   -3.5643   -0.4093    0.0000 C   0  0  0  0  0  0  0  0  0  0  0  0
   -1.4154   -1.6543    0.0000 C   0  0  0  0  0  0  0  0  0  0  0  0
   -1.4154   -0.8271    0.0000 C   0  0  0  0  0  0  0  0  0  0  0  0
   -2.1147   -0.4093    0.0000 C   0  0  0  0  0  0  0  0  0  0  0  0
   -0.6651   -2.0635    0.0000 C   0  0  0  0  0  0  0  0  0  0  0  0
    0.0341   -1.6543    0.0000 C   0  0  0  0  0  0  0  0  0  0  0  0
    0.0341   -0.8271    0.0000 C   0  0  0  0  0  0  0  0  0  0  0  0
   -0.6651   -0.4093    0.0000 C   0  0  0  0  0  0  0  0  0  0  0  0
   -2.1147    0.4177    0.0000 C   0  0  0  0  0  0  0  0  0  0  0  0
    0.7504   -2.0635    0.0000 O   0  0  0  0  0  0  0  0  0  0  0  0
    1.4580   -1.6543    0.0000 C   0  0  0  0  0  0  0  0  0  0  0  0
    2.1573   -2.0549    0.0000 C   0  0  0  0  0  0  0  0  0  0  0  0
    2.8565   -1.6457    0.0000 N   0  0  0  0  0  0  0  0  0  0  0  0
    3.5643   -2.0549    0.0000 C   0  0  0  0  0  0  0  0  0  0  0  0
    4.2636   -1.6457    0.0000 C   0  0  0  0  0  0  0  0  0  0  0  0
    2.8565   -0.8271    0.0000 C   0  0  0  0  0  0  0  0  0  0  0  0
    3.5643   -0.4093    0.0000 C   0  0  0  0  0  0  0  0  0  0  0  0
   -2.8310    0.8271    0.0000 Cl  0  0  0  0  0  0  0  0  0  0  0  0
   -1.3984    0.8271    0.0000 C   0  0  0  0  0  0  0  0  0  0  0  0
   -0.7077    0.4263    0.0000 C   0  0  0  0  0  0  0  0  0  0  0  0
    0.0084    0.8356    0.0000 C   0  0  0  0  0  0  0  0  0  0  0  0
    0.0084    1.6627    0.0000 C   0  0  0  0  0  0  0  0  0  0  0  0
   -0.6821    2.0635    0.0000 C   0  0  0  0  0  0  0  0  0  0  0  0
   -1.3984    1.6542    0.0000 C   0  0  0  0  0  0  0  0  0  0  0  0
  1  2  2  0
  1  6  1  0
  2  3  1  0
  3  4  2  0
  4  5  1  0
  5  6  2  0
  5  9  1  0
  7  8  2  0
  7 10  1  0
  8  9  1  0
  8 13  1  0
  9 14  2  3
 10 11  2  0
 11 12  1  0
 11 15  1  0
 12 13  2  0
 14 23  1  0
 14 24  1  0
 15 16  1  0
 16 17  1  0
 17 18  1  0
 18 19  1  0
 18 21  1  0
 19 20  1  0
 21 22  1  0
 24 25  2  0
 24 29  1  0
 25 26  1  0
 26 27  2  0
 27 28  1  0
 28 29  2  0
M  END
$$$$
