230
     RDKit          2D

 11 10  0  0  1  0  0  0  0  0999 V2000
    5.2224    0.4620    0.0000 O   0  0  0  0  0  0  0  0  0  0  0  0
    4.5080   -0.7755    0.0000 O   0  0  0  0  0  0  0  0  0  0  0  0
    2.3645   -1.1880    0.0000 N   0  0  0  0  0  0  0  0  0  0  0  0
    3.0791    0.0495    0.0000 C   0  0  0  0  0  0  0  0  0  0  0  0
    2.3645    0.4620    0.0000 C   0  0  0  0  0  0  0  0  0  0  0  0
    2.3645    1.2870    0.0000 C   0  0  0  0  0  0  0  0  0  0  0  0
    3.7935    0.4620    0.0000 C   0  0  0  0  0  0  0  0  0  0  0  0
    3.0791   -0.7755    0.0000 C   0  0  0  0  0  0  0  0  0  0  0  0
    1.6500    1.6995    0.0000 C   0  0  0  0  0  0  0  0  0  0  0  0
    3.0791    1.6995    0.0000 C   0  0  0  0  0  0  0  0  0  0  0  0
    4.5080    0.0495    0.0000 C   0  0  0  0  0  0  0  0  0  0  0  0
  1 11  1  0
  2 11  2  0
  3  8  1  0
  4  5  1  1
  4  7  1  0
  4  8  1  0
  5  6  1  0
  6  9  1  0
  6 10  1  0
  7 11  1  0
M  END
$$$$
