
     RDKit          2D

 22 25  0  0  0  0  0  0  0  0999 V2000
    0.8062   -0.5677    0.0000 N   0  0  0  0  0  0  0  0  0  0  0  0
    1.6313   -0.5677    0.0000 C   0  0  0  0  0  0  0  0  0  0  0  0
    2.0438   -1.2822    0.0000 C   0  0  0  0  0  0  0  0  0  0  0  0
    0.3189   -1.8801    0.0000 C   0  0  0  0  0  0  0  0  0  0  0  0
    0.2229   -1.1511    0.0000 C   0  0  0  0  0  0  0  0  0  0  0  0
   -0.5510   -0.7464    0.0000 C   0  0  0  0  0  0  0  0  0  0  0  0
   -1.2055   -1.2487    0.0000 C   0  0  0  0  0  0  0  0  0  0  0  0
   -0.3356   -2.3824    0.0000 C   0  0  0  0  0  0  0  0  0  0  0  0
   -1.0978   -2.0666    0.0000 C   0  0  0  0  0  0  0  0  0  0  0  0
    1.0333   -2.2926    0.0000 N   0  0  0  0  0  0  0  0  0  0  0  0
    1.8302   -2.0791    0.0000 C   0  0  0  0  0  0  0  0  0  0  0  0
    2.8677   -1.2391    0.0000 C   0  0  0  0  0  0  0  0  0  0  0  0
    2.5221   -2.5285    0.0000 S   0  0  0  0  0  0  0  0  0  0  0  0
    3.1632   -2.0094    0.0000 C   0  0  0  0  0  0  0  0  0  0  0  0
    2.2147    0.0157    0.0000 N   0  0  0  0  0  0  0  0  0  0  0  0
    3.9601   -2.2229    0.0000 C   0  0  0  0  0  0  0  0  0  0  0  0
    2.0011    0.8126    0.0000 C   0  0  0  0  0  0  0  0  0  0  0  0
    3.0116   -0.1979    0.0000 C   0  0  0  0  0  0  0  0  0  0  0  0
    2.5845    1.3959    0.0000 C   0  0  0  0  0  0  0  0  0  0  0  0
    3.5949    0.3855    0.0000 C   0  0  0  0  0  0  0  0  0  0  0  0
    3.3814    1.1824    0.0000 N   0  0  0  0  0  0  0  0  0  0  0  0
    3.9648    1.7658    0.0000 C   0  0  0  0  0  0  0  0  0  0  0  0
  1  2  2  0
  1  5  1  0
  2  3  1  0
 11 10  1  0
 10  4  1  0
  8  4  2  0
  4  5  1  0
  6  5  2  0
  6  7  1  0
  7  9  2  0
  9  8  1  0
 11 13  1  0
  3 11  2  0
 12  3  1  0
 13 14  1  0
 12 14  2  0
  2 15  1  0
 14 16  1  0
 15 17  1  0
 15 18  1  0
 17 19  1  0
 18 20  1  0
 20 21  1  0
 19 21  1  0
 21 22  1  0
M  END
$$$$
