927
     RDKit          2D

 20 20  0  0  0  0  0  0  0  0999 V2000
    6.3947   -0.0210    0.0000 S   0  0  0  0  0  0  0  0  0  0  0  0
    2.8147    0.3182    0.0000 S   0  0  0  0  0  0  0  0  0  0  0  0
    8.8723    0.4664    0.0000 S   0  0  0  0  0  0  0  0  0  0  0  0
    3.0696   -0.4664    0.0000 O   0  0  0  0  0  0  0  0  0  0  0  0
    2.5598    1.1028    0.0000 O   0  0  0  0  0  0  0  0  0  0  0  0
    3.5993    0.5731    0.0000 N   0  0  0  0  0  0  0  0  0  0  0  0
    8.4599   -0.8030    0.0000 N   0  0  0  0  0  0  0  0  0  0  0  0
    4.0409   -0.7859    0.0000 N   0  0  0  0  0  0  0  0  0  0  0  0
    9.9119   -0.5731    0.0000 N   0  0  0  0  0  0  0  0  0  0  0  0
    2.0301    0.0632    0.0000 N   0  0  0  0  0  0  0  0  0  0  0  0
   11.3096   -0.2760    0.0000 N   0  0  0  0  0  0  0  0  0  0  0  0
   10.3534    0.7859    0.0000 N   0  0  0  0  0  0  0  0  0  0  0  0
    4.9970    0.2760    0.0000 C   0  0  0  0  0  0  0  0  0  0  0  0
    5.6101   -0.2760    0.0000 C   0  0  0  0  0  0  0  0  0  0  0  0
    7.0078   -0.5731    0.0000 C   0  0  0  0  0  0  0  0  0  0  0  0
    4.2124    0.0210    0.0000 C   0  0  0  0  0  0  0  0  0  0  0  0
    7.7924   -0.3182    0.0000 C   0  0  0  0  0  0  0  0  0  0  0  0
    8.0474    0.4664    0.0000 C   0  0  0  0  0  0  0  0  0  0  0  0
    9.1273   -0.3182    0.0000 C   0  0  0  0  0  0  0  0  0  0  0  0
   10.5250   -0.0210    0.0000 C   0  0  0  0  0  0  0  0  0  0  0  0
  1 14  1  0
  1 15  1  0
  2  4  2  0
  2  5  2  0
  2  6  1  0
  2 10  1  0
  3 18  1  0
  3 19  1  0
  6 16  2  3
  7 17  1  0
  7 19  2  0
  8 16  1  0
  9 19  1  0
  9 20  2  0
 11 20  1  0
 12 20  1  0
 13 14  1  0
 13 16  1  0
 15 17  1  0
 17 18  2  0
M  END
$$$$
