274
     RDKit          2D

 30 32  0  0  1  0  0  0  0  0999 V2000
    5.8137   -0.4708    0.0000 S   0  0  0  0  0  0  0  0  0  0  0  0
    3.6702    0.7667    0.0000 S   0  0  0  0  0  0  0  0  0  0  0  0
    9.8321   -1.4958    0.0000 S   0  0  0  0  0  0  0  0  0  0  0  0
    7.3583   -0.8868    0.0000 O   0  0  0  0  0  0  0  0  0  0  0  0
    7.9421    1.3547    0.0000 O   0  0  0  0  0  0  0  0  0  0  0  0
    5.0992    2.4167    0.0000 O   0  0  0  0  0  0  0  0  0  0  0  0
    6.5282    2.4167    0.0000 O   0  0  0  0  0  0  0  0  0  0  0  0
    8.1821   -1.4924    0.0000 O   0  0  0  0  0  0  0  0  0  0  0  0
    6.5282    0.7667    0.0000 N   0  0  0  0  0  0  0  0  0  0  0  0
    8.1850   -0.0634    0.0000 N   0  0  0  0  0  0  0  0  0  0  0  0
    2.2020    0.8436    0.0000 N   0  0  0  0  0  0  0  0  0  0  0  0
    2.8695    1.9997    0.0000 N   0  0  0  0  0  0  0  0  0  0  0  0
    1.6500    1.4567    0.0000 N   0  0  0  0  0  0  0  0  0  0  0  0
    2.0625    2.1712    0.0000 N   0  0  0  0  0  0  0  0  0  0  0  0
   11.4792   -2.9282    0.0000 N   0  0  0  0  0  0  0  0  0  0  0  0
    6.5282   -0.0583    0.0000 C   0  0  0  0  0  0  0  0  0  0  0  0
    7.3600   -0.0618    0.0000 C   0  0  0  0  0  0  0  0  0  0  0  0
    7.3600    0.7701    0.0000 C   0  0  0  0  0  0  0  0  0  0  0  0
    5.8137    1.1792    0.0000 C   0  0  0  0  0  0  0  0  0  0  0  0
    5.0992    0.7667    0.0000 C   0  0  0  0  0  0  0  0  0  0  0  0
    5.0992   -0.0583    0.0000 C   0  0  0  0  0  0  0  0  0  0  0  0
    4.3847    1.1792    0.0000 C   0  0  0  0  0  0  0  0  0  0  0  0
    5.8137    2.0042    0.0000 C   0  0  0  0  0  0  0  0  0  0  0  0
    8.5960   -0.7788    0.0000 C   0  0  0  0  0  0  0  0  0  0  0  0
    6.6430   -1.2978    0.0000 C   0  0  0  0  0  0  0  0  0  0  0  0
    9.4211   -0.7805    0.0000 C   0  0  0  0  0  0  0  0  0  0  0  0
    2.9558    1.1792    0.0000 C   0  0  0  0  0  0  0  0  0  0  0  0
   10.6571   -1.4976    0.0000 C   0  0  0  0  0  0  0  0  0  0  0  0
    2.0305    0.0366    0.0000 C   0  0  0  0  0  0  0  0  0  0  0  0
   11.0681   -2.2128    0.0000 C   0  0  0  0  0  0  0  0  0  0  0  0
 16  1  1  1
  1 21  1  0
  2 22  1  0
  2 27  1  0
  3 26  1  0
  3 28  1  0
 17  4  1  0
  4 25  1  0
  5 18  2  0
  6 23  1  0
  7 23  2  0
  8 24  2  0
  9 16  1  0
  9 18  1  0
  9 19  1  0
 17 10  1  1
 10 24  1  0
 11 13  1  0
 11 27  1  0
 11 29  1  0
 12 14  1  0
 12 27  2  0
 13 14  2  0
 15 30  3  0
 16 17  1  0
 17 18  1  0
 19 20  2  0
 19 23  1  0
 20 21  1  0
 20 22  1  0
 24 26  1  0
 28 30  1  0
M  END
$$$$
