[NO NAME]
     RDKit          2D

 74 77  0  0  1  0  0  0  0  0999 V2000
    0.0000   -7.8646    0.0000 N   0  0  0  0  0  0  0  0  0  0  0  0
    0.6741   -7.4601    0.0000 C   0  0  0  0  0  0  0  0  0  0  0  0
    1.3932   -7.8646    0.0000 C   0  0  0  0  0  0  0  0  0  0  0  0
    2.1122   -7.4601    0.0000 N   0  0  0  0  0  0  0  0  0  0  0  0
    2.8313   -7.8646    0.0000 C   0  0  0  0  0  0  0  0  0  0  0  0
    3.5503   -7.4601    0.0000 C   0  0  0  0  0  0  0  0  0  0  0  0
    4.2693   -7.8646    0.0000 N   0  0  0  0  0  0  0  0  0  0  0  0
    4.9435   -7.4601    0.0000 C   0  0  0  0  0  0  0  0  0  0  0  0
    5.6625   -7.8646    0.0000 O   0  0  0  0  0  0  0  0  0  0  0  0
    0.6741   -6.6512    0.0000 O   0  0  0  0  0  0  0  0  0  0  0  0
    2.8313   -8.7184    0.0000 O   0  0  0  0  0  0  0  0  0  0  0  0
    3.5503   -6.6512    0.0000 C   0  0  0  0  0  0  0  0  0  0  0  0
    2.8313   -6.2467    0.0000 C   0  0  0  0  0  0  0  0  0  0  0  0
    2.8313   -5.4378    0.0000 C   0  0  0  0  0  0  0  0  0  0  0  0
    2.1122   -5.0333    0.0000 N   0  0  0  0  0  0  0  0  0  0  0  0
    4.9435   -6.6512    0.0000 C   0  0  0  0  0  0  0  0  0  0  0  0
    4.3143   -6.1568    0.0000 C   0  0  0  0  0  0  0  0  0  0  0  0
    5.6176   -6.1568    0.0000 N   0  0  0  0  0  0  0  0  0  0  0  0
    4.5390   -5.3929    0.0000 C   0  0  0  0  0  0  0  0  0  0  0  0
    5.3479   -5.3929    0.0000 C   0  0  0  0  0  0  0  0  0  0  0  0
    6.3366   -6.5613    0.0000 C   0  0  0  0  0  0  0  0  0  0  0  0
    7.0557   -6.1568    0.0000 C   0  0  0  0  0  0  0  0  0  0  0  0
    7.7747   -6.5613    0.0000 N   0  0  0  0  0  0  0  0  0  0  0  0
    8.4488   -6.1568    0.0000 C   0  0  0  0  0  0  0  0  0  0  0  0
    9.1678   -6.5613    0.0000 C   0  0  0  0  0  0  0  0  0  0  0  0
    9.8869   -6.1568    0.0000 N   0  0  0  0  0  0  0  0  0  0  0  0
    6.3366   -7.4152    0.0000 O   0  0  0  0  0  0  0  0  0  0  0  0
    7.0557   -5.3479    0.0000 C   0  0  0  0  0  0  0  0  0  0  0  0
    6.3366   -4.9435    0.0000 S   0  0  0  0  0  0  0  0  0  0  0  0
    6.3366   -4.1345    0.0000 S   0  0  0  0  0  0  0  0  0  0  0  0
    8.4488   -5.3479    0.0000 O   0  0  0  0  0  0  0  0  0  0  0  0
    9.1678   -7.4152    0.0000 C   0  0  0  0  0  0  0  0  0  0  0  0
    9.8869   -7.8197    0.0000 C   0  0  0  0  0  0  0  0  0  0  0  0
    9.8869   -8.6286    0.0000 O   0  0  0  0  0  0  0  0  0  0  0  0
   10.6060   -7.4152    0.0000 N   0  0  0  0  0  0  0  0  0  0  0  0
    9.8869   -5.3479    0.0000 C   0  0  0  0  0  0  0  0  0  0  0  0
   10.6060   -4.9435    0.0000 C   0  0  0  0  0  0  0  0  0  0  0  0
    9.1678   -4.9435    0.0000 O   0  0  0  0  0  0  0  0  0  0  0  0
   11.3250   -5.3479    0.0000 C   0  0  0  0  0  0  0  0  0  0  0  0
   12.0441   -4.9435    0.0000 C   0  0  0  0  0  0  0  0  0  0  0  0
   12.7631   -5.3479    0.0000 C   0  0  0  0  0  0  0  0  0  0  0  0
   13.4822   -4.9435    0.0000 N   0  0  0  0  0  0  0  0  0  0  0  0
   12.7631   -6.2018    0.0000 O   0  0  0  0  0  0  0  0  0  0  0  0
   10.6060   -4.1345    0.0000 N   0  0  0  0  0  0  0  0  0  0  0  0
   11.3250   -2.8762    0.0000 C   0  0  0  0  0  0  0  0  0  0  0  0
   11.3250   -3.7300    0.0000 C   0  0  0  0  0  0  0  0  0  0  0  0
   10.6060   -2.4717    0.0000 C   0  0  0  0  0  0  0  0  0  0  0  0
    9.8869   -2.8762    0.0000 C   0  0  0  0  0  0  0  0  0  0  0  0
    9.8869   -3.7300    0.0000 C   0  0  0  0  0  0  0  0  0  0  0  0
   12.7631   -2.8762    0.0000 C   0  0  0  0  0  0  0  0  0  0  0  0
   12.7631   -3.7300    0.0000 C   0  0  0  0  0  0  0  0  0  0  0  0
   12.0441   -2.4717    0.0000 C   0  0  0  0  0  0  0  0  0  0  0  0
   12.0441   -4.1345    0.0000 C   0  0  0  0  0  0  0  0  0  0  0  0
    7.0557   -2.8762    0.0000 N   0  0  0  0  0  0  0  0  0  0  0  0
    6.3366   -2.4717    0.0000 C   0  0  0  0  0  0  0  0  0  0  0  0
    5.6176   -2.8762    0.0000 C   0  0  0  0  0  0  0  0  0  0  0  0
    5.6176   -3.7300    0.0000 C   0  0  0  0  0  0  0  0  0  0  0  0
    8.4488   -2.8762    0.0000 C   0  0  0  0  0  0  0  0  0  0  0  0
    8.4488   -3.7300    0.0000 O   0  0  0  0  0  0  0  0  0  0  0  0
    7.7747   -2.4717    0.0000 C   0  0  0  0  0  0  0  0  0  0  0  0
    9.1678   -2.4717    0.0000 N   0  0  0  0  0  0  0  0  0  0  0  0
    9.1678   -4.1345    0.0000 O   0  0  0  0  0  0  0  0  0  0  0  0
    7.7747   -1.6628    0.0000 C   0  0  0  0  0  0  0  0  0  0  0  0
    9.1678   -1.6628    0.0000 C   0  0  0  0  0  0  0  0  0  0  0  0
    8.4488   -1.2583    0.0000 C   0  0  0  0  0  0  0  0  0  0  0  0
    9.8869   -1.2583    0.0000 C   0  0  0  0  0  0  0  0  0  0  0  0
    9.8869   -0.4045    0.0000 C   0  0  0  0  0  0  0  0  0  0  0  0
    8.4488   -0.4045    0.0000 C   0  0  0  0  0  0  0  0  0  0  0  0
    9.1678    0.0000    0.0000 C   0  0  0  0  0  0  0  0  0  0  0  0
    6.3366   -1.6628    0.0000 O   0  0  0  0  0  0  0  0  0  0  0  0
   10.6060    0.0000    0.0000 O   0  0  0  0  0  0  0  0  0  0  0  0
    1.3932   -5.4378    0.0000 C   0  0  0  0  0  0  0  0  0  0  0  0
    1.3932   -6.2467    0.0000 N   0  0  0  0  0  0  0  0  0  0  0  0
    0.6741   -5.0333    0.0000 N   0  0  0  0  0  0  0  0  0  0  0  0
  1  2  1  0
  2  3  1  0
  2 10  2  0
  3  4  1  0
  4  5  1  0
  5  6  1  0
  5 11  2  0
  6  7  1  0
  6 12  1  6
  7  8  1  0
  8  9  2  0
 16  8  1  6
 12 13  1  0
 13 14  1  0
 14 15  1  0
 15 72  1  0
 16 17  1  0
 16 18  1  0
 17 19  1  0
 18 20  1  0
 18 21  1  0
 19 20  1  0
 22 21  1  6
 21 27  2  0
 22 23  1  0
 22 28  1  0
 23 24  1  0
 24 25  1  0
 24 31  2  0
 25 26  1  0
 25 32  1  1
 26 36  1  0
 28 29  1  0
 29 30  1  0
 30 57  1  0
 32 33  1  0
 33 34  2  0
 33 35  1  0
 36 37  1  0
 36 38  2  0
 37 39  1  1
 37 44  1  0
 39 40  1  0
 40 41  1  0
 41 42  1  0
 41 43  2  0
 44 49  1  0
 45 47  1  0
 45 52  1  0
 45 46  2  0
 46 53  1  0
 48 47  1  1
 48 61  1  0
 48 49  1  0
 49 62  2  0
 50 51  1  0
 50 52  2  0
 51 53  2  0
 54 55  1  0
 54 60  1  0
 55 56  1  0
 55 70  2  0
 56 57  1  0
 58 59  2  0
 58 60  1  0
 58 61  1  0
 60 63  1  1
 63 65  1  0
 64 66  2  0
 64 65  1  0
 65 68  2  0
 66 67  1  0
 67 69  2  0
 67 71  1  0
 68 69  1  0
 72 73  2  3
 72 74  1  0
M  END
$$$$
