482
     RDKit          2D

 26 28  0  0  0  0  0  0  0  0999 V2000
    3.2149   -2.4119    0.0000 S   0  0  0  0  0  0  0  0  0  0  0  0
    1.6500    2.3402    0.0000 F   0  0  0  0  0  0  0  0  0  0  0  0
    2.9849    3.3101    0.0000 F   0  0  0  0  0  0  0  0  0  0  0  0
    1.8325    3.4926    0.0000 F   0  0  0  0  0  0  0  0  0  0  0  0
    4.0399   -2.4119    0.0000 O   0  0  0  0  0  0  0  0  0  0  0  0
    2.3899   -2.4119    0.0000 O   0  0  0  0  0  0  0  0  0  0  0  0
    3.2149    0.8882    0.0000 N   0  0  0  0  0  0  0  0  0  0  0  0
    2.5475    1.3731    0.0000 N   0  0  0  0  0  0  0  0  0  0  0  0
    3.2149   -3.2369    0.0000 N   0  0  0  0  0  0  0  0  0  0  0  0
    3.8824    1.3731    0.0000 C   0  0  0  0  0  0  0  0  0  0  0  0
    3.2149    0.0632    0.0000 C   0  0  0  0  0  0  0  0  0  0  0  0
    4.6670    1.1181    0.0000 C   0  0  0  0  0  0  0  0  0  0  0  0
    3.6274    2.1578    0.0000 C   0  0  0  0  0  0  0  0  0  0  0  0
    2.8024    2.1578    0.0000 C   0  0  0  0  0  0  0  0  0  0  0  0
    3.9294   -0.3493    0.0000 C   0  0  0  0  0  0  0  0  0  0  0  0
    2.5005   -0.3493    0.0000 C   0  0  0  0  0  0  0  0  0  0  0  0
    3.2149   -1.5868    0.0000 C   0  0  0  0  0  0  0  0  0  0  0  0
    4.8386    0.3112    0.0000 C   0  0  0  0  0  0  0  0  0  0  0  0
    5.2801    1.6702    0.0000 C   0  0  0  0  0  0  0  0  0  0  0  0
    3.9294   -1.1743    0.0000 C   0  0  0  0  0  0  0  0  0  0  0  0
    2.5005   -1.1743    0.0000 C   0  0  0  0  0  0  0  0  0  0  0  0
    6.2363    0.6083    0.0000 C   0  0  0  0  0  0  0  0  0  0  0  0
    5.6232    0.0563    0.0000 C   0  0  0  0  0  0  0  0  0  0  0  0
    6.0648    1.4152    0.0000 C   0  0  0  0  0  0  0  0  0  0  0  0
    2.3175    2.8252    0.0000 C   0  0  0  0  0  0  0  0  0  0  0  0
    7.0209    0.3534    0.0000 C   0  0  0  0  0  0  0  0  0  0  0  0
  1  5  2  0
  1  6  2  0
  1  9  1  0
  1 17  1  0
  2 25  1  0
  3 25  1  0
  4 25  1  0
  7  8  1  0
  7 10  1  0
  7 11  1  0
  8 14  2  0
 10 12  1  0
 10 13  2  0
 11 15  2  0
 11 16  1  0
 12 18  2  0
 12 19  1  0
 13 14  1  0
 14 25  1  0
 15 20  1  0
 16 21  2  0
 17 20  2  0
 17 21  1  0
 18 23  1  0
 19 24  2  0
 22 23  2  0
 22 24  1  0
 22 26  1  0
M  END
$$$$
