637
     RDKit          2D

 34 38  0  0  0  0  0  0  0  0999 V2000
    1.9121    4.8101    0.0000 F   0  0  0  0  0  0  0  0  0  0  0  0
    9.2913   -4.8101    0.0000 O   0  0  0  0  0  0  0  0  0  0  0  0
    6.4037   -1.2377    0.0000 N   0  0  0  0  0  0  0  0  0  0  0  0
    5.1662    0.9058    0.0000 N   0  0  0  0  0  0  0  0  0  0  0  0
    3.8597    1.5697    0.0000 N   0  0  0  0  0  0  0  0  0  0  0  0
    3.8597    0.2418    0.0000 N   0  0  0  0  0  0  0  0  0  0  0  0
    5.5787    0.1912    0.0000 C   0  0  0  0  0  0  0  0  0  0  0  0
    5.1662   -0.5232    0.0000 C   0  0  0  0  0  0  0  0  0  0  0  0
    6.4037    0.1912    0.0000 C   0  0  0  0  0  0  0  0  0  0  0  0
    5.5787   -1.2377    0.0000 C   0  0  0  0  0  0  0  0  0  0  0  0
    6.8162   -0.5232    0.0000 C   0  0  0  0  0  0  0  0  0  0  0  0
    6.8162   -1.9522    0.0000 C   0  0  0  0  0  0  0  0  0  0  0  0
    7.6412   -1.9522    0.0000 C   0  0  0  0  0  0  0  0  0  0  0  0
    4.3412    0.9058    0.0000 C   0  0  0  0  0  0  0  0  0  0  0  0
    8.0537   -2.6667    0.0000 C   0  0  0  0  0  0  0  0  0  0  0  0
    3.0791    1.3183    0.0000 C   0  0  0  0  0  0  0  0  0  0  0  0
    4.1159    2.3539    0.0000 C   0  0  0  0  0  0  0  0  0  0  0  0
    3.0791    0.4933    0.0000 C   0  0  0  0  0  0  0  0  0  0  0  0
    2.3645    1.7308    0.0000 C   0  0  0  0  0  0  0  0  0  0  0  0
    3.5650    2.9679    0.0000 C   0  0  0  0  0  0  0  0  0  0  0  0
    8.8788   -2.6667    0.0000 C   0  0  0  0  0  0  0  0  0  0  0  0
    7.6412   -3.3812    0.0000 C   0  0  0  0  0  0  0  0  0  0  0  0
    2.3645    0.0808    0.0000 C   0  0  0  0  0  0  0  0  0  0  0  0
    1.6500    1.3183    0.0000 C   0  0  0  0  0  0  0  0  0  0  0  0
    1.6500    0.4933    0.0000 C   0  0  0  0  0  0  0  0  0  0  0  0
    9.2913   -3.3812    0.0000 C   0  0  0  0  0  0  0  0  0  0  0  0
    8.0537   -4.0956    0.0000 C   0  0  0  0  0  0  0  0  0  0  0  0
    2.7577    2.7978    0.0000 C   0  0  0  0  0  0  0  0  0  0  0  0
    3.8213    3.7521    0.0000 C   0  0  0  0  0  0  0  0  0  0  0  0
    8.8788   -4.0956    0.0000 C   0  0  0  0  0  0  0  0  0  0  0  0
    2.2067    3.4119    0.0000 C   0  0  0  0  0  0  0  0  0  0  0  0
    3.2703    4.3662    0.0000 C   0  0  0  0  0  0  0  0  0  0  0  0
    2.4630    4.1960    0.0000 C   0  0  0  0  0  0  0  0  0  0  0  0
   10.1163   -4.8101    0.0000 C   0  0  0  0  0  0  0  0  0  0  0  0
  1 33  1  0
  2 30  1  0
  2 34  1  0
  3 10  1  0
  3 11  1  0
  3 12  1  0
  4  7  1  0
  4 14  1  0
  5 14  1  0
  5 16  1  0
  5 17  1  0
  6 14  2  0
  6 18  1  0
  7  8  1  0
  7  9  1  0
  8 10  1  0
  9 11  1  0
 12 13  1  0
 13 15  1  0
 15 21  2  0
 15 22  1  0
 16 18  2  0
 16 19  1  0
 17 20  1  0
 18 23  1  0
 19 24  2  0
 20 28  2  0
 20 29  1  0
 21 26  1  0
 22 27  2  0
 23 25  2  0
 24 25  1  0
 26 30  2  0
 27 30  1  0
 28 31  1  0
 29 32  2  0
 31 33  2  0
 32 33  1  0
M  END
$$$$
