728
     RDKit          2D

 38 43  0  0  1  0  0  0  0  0999 V2000
    8.5518    1.3335    0.0000 O   0  0  0  0  0  0  0  0  0  0  0  0
    3.0656   -2.2203    0.0000 O   0  0  0  0  0  0  0  0  0  0  0  0
    1.6596    0.3468    0.0000 O   0  0  0  0  0  0  0  0  0  0  0  0
    7.1935    1.7775    0.0000 O   0  0  0  0  0  0  0  0  0  0  0  0
    9.6020   -0.1146    0.0000 N   0  0  0  0  0  0  0  0  0  0  0  0
    3.0788   -0.4947    0.0000 N   0  0  0  0  0  0  0  0  0  0  0  0
    7.5149   -0.5271    0.0000 C   0  0  0  0  0  0  0  0  0  0  0  0
    7.5149    0.2979    0.0000 C   0  0  0  0  0  0  0  0  0  0  0  0
    6.8004   -0.9396    0.0000 C   0  0  0  0  0  0  0  0  0  0  0  0
    6.0859   -0.5271    0.0000 C   0  0  0  0  0  0  0  0  0  0  0  0
    5.3351   -0.9452    0.0000 C   0  0  0  0  0  0  0  0  0  0  0  0
    8.7770   -0.1146    0.0000 C   0  0  0  0  0  0  0  0  0  0  0  0
    8.2955    0.5494    0.0000 C   0  0  0  0  0  0  0  0  0  0  0  0
    8.2955   -0.7785    0.0000 C   0  0  0  0  0  0  0  0  0  0  0  0
    6.8004    0.7104    0.0000 C   0  0  0  0  0  0  0  0  0  0  0  0
    5.3285   -1.8045    0.0000 C   0  0  0  0  0  0  0  0  0  0  0  0
    6.0859    0.2979    0.0000 C   0  0  0  0  0  0  0  0  0  0  0  0
    6.8136   -1.7988    0.0000 C   0  0  0  0  0  0  0  0  0  0  0  0
    6.0728   -2.2342    0.0000 C   0  0  0  0  0  0  0  0  0  0  0  0
    4.5705   -0.4798    0.0000 C   0  0  0  0  0  0  0  0  0  0  0  0
    7.5149    1.1229    0.0000 C   0  0  0  0  0  0  0  0  0  0  0  0
    4.5568   -2.2580    0.0000 C   0  0  0  0  0  0  0  0  0  0  0  0
    3.7885   -0.9154    0.0000 C   0  0  0  0  0  0  0  0  0  0  0  0
    5.3416   -0.1202    0.0000 C   0  0  0  0  0  0  0  0  0  0  0  0
    9.6020    0.7104    0.0000 C   0  0  0  0  0  0  0  0  0  0  0  0
   10.3866   -0.3695    0.0000 C   0  0  0  0  0  0  0  0  0  0  0  0
    3.7817   -1.8105    0.0000 C   0  0  0  0  0  0  0  0  0  0  0  0
    9.3470   -0.8992    0.0000 C   0  0  0  0  0  0  0  0  0  0  0  0
   10.3866    0.9653    0.0000 C   0  0  0  0  0  0  0  0  0  0  0  0
   10.8716    0.2979    0.0000 C   0  0  0  0  0  0  0  0  0  0  0  0
    9.8991   -1.5123    0.0000 C   0  0  0  0  0  0  0  0  0  0  0  0
    8.0008    1.9476    0.0000 C   0  0  0  0  0  0  0  0  0  0  0  0
    3.0884    0.3302    0.0000 C   0  0  0  0  0  0  0  0  0  0  0  0
    2.3597   -0.8989    0.0000 C   0  0  0  0  0  0  0  0  0  0  0  0
    2.3787    0.7510    0.0000 C   0  0  0  0  0  0  0  0  0  0  0  0
    1.6500   -0.4782    0.0000 C   0  0  0  0  0  0  0  0  0  0  0  0
    8.2571    2.7318    0.0000 C   0  0  0  0  0  0  0  0  0  0  0  0
    9.6441   -2.2969    0.0000 C   0  0  0  0  0  0  0  0  0  0  0  0
 13  1  1  1
  1 32  1  0
 27  2  1  6
  3 35  1  0
  3 36  1  0
  4 32  2  0
 12  5  1  1
  5 25  1  0
  5 26  1  0
  5 28  1  0
 23  6  1  1
  6 33  1  0
  6 34  1  0
  7  8  1  0
  7  9  1  0
  7 14  1  1
  8 13  1  0
  8 15  1  0
  8 21  1  1
  9 10  1  0
  9 18  1  6
 10 11  1  0
 10 17  1  1
 11 16  1  0
 11 20  1  0
 11 24  1  1
 12 13  1  0
 12 14  1  0
 15 17  1  0
 16 19  1  1
 16 22  1  0
 18 19  1  0
 20 23  1  0
 22 27  1  0
 23 27  1  0
 25 29  1  0
 26 30  1  0
 28 31  1  0
 29 30  1  0
 31 38  2  3
 32 37  1  0
 33 35  1  0
 34 36  1  0
M  CHG  1   5   1
M  END
$$$$
