550
     RDKit          2D

 11 11  0  0  0  0  0  0  0  0999 V2000
    5.9370   -0.9818    0.0000 S   0  0  0  0  0  0  0  0  0  0  0  0
    4.5080    1.4933    0.0000 O   0  0  0  0  0  0  0  0  0  0  0  0
    4.5080   -0.9818    0.0000 N   0  0  0  0  0  0  0  0  0  0  0  0
    5.2224    0.2558    0.0000 N   0  0  0  0  0  0  0  0  0  0  0  0
    3.0791   -0.9818    0.0000 C   0  0  0  0  0  0  0  0  0  0  0  0
    3.7935   -0.5693    0.0000 C   0  0  0  0  0  0  0  0  0  0  0  0
    2.3645   -0.5693    0.0000 C   0  0  0  0  0  0  0  0  0  0  0  0
    3.7935    0.2558    0.0000 C   0  0  0  0  0  0  0  0  0  0  0  0
    1.6500   -0.9818    0.0000 C   0  0  0  0  0  0  0  0  0  0  0  0
    5.2224   -0.5693    0.0000 C   0  0  0  0  0  0  0  0  0  0  0  0
    4.5080    0.6683    0.0000 C   0  0  0  0  0  0  0  0  0  0  0  0
  1 10  2  0
  2 11  2  0
  3  6  1  0
  3 10  1  0
  4 10  1  0
  4 11  1  0
  5  6  1  0
  5  7  1  0
  6  8  2  0
  7  9  1  0
  8 11  1  0
M  END
$$$$
