 
     RDKit          2D

 30 32  0  0  1  0  0  0  0  0999 V2000
   19.2756  -10.5160    0.0000 C   0  0  0  0  0  0  0  0  0  0  0  0
   19.2756  -11.3410    0.0000 N   0  0  0  0  0  0  0  0  0  0  0  0
   19.9769  -11.7536    0.0000 C   0  0  0  0  0  0  0  0  0  0  0  0
   20.6782  -11.3410    0.0000 C   0  0  0  0  0  0  0  0  0  0  0  0
   20.6782  -10.5160    0.0000 C   0  0  0  0  0  0  0  0  0  0  0  0
   19.9769  -10.1035    0.0000 S   0  0  0  0  0  0  0  0  0  0  0  0
   18.4506  -10.5160    0.0000 C   0  0  0  0  0  0  0  0  0  0  0  0
   18.4506  -11.3410    0.0000 C   0  0  0  0  0  0  0  0  0  0  0  0
   17.7079  -10.1035    0.0000 N   0  0  0  0  0  0  0  0  0  0  0  0
   17.0066  -10.5160    0.0000 C   0  0  0  0  0  0  0  0  0  0  0  0
   17.0066  -11.3410    0.0000 O   0  0  0  0  0  0  0  0  0  0  0  0
   17.7079  -11.7536    0.0000 O   0  0  0  0  0  0  0  0  0  0  0  0
   16.3053  -10.1035    0.0000 C   0  0  0  0  0  0  0  0  0  0  0  0
   21.4207  -11.7536    0.0000 C   0  0  0  0  0  0  0  0  0  0  0  0
   15.5628  -10.5160    0.0000 C   0  0  0  0  0  0  0  0  0  0  0  0
   14.9440  -10.0209    0.0000 C   0  0  0  0  0  0  0  0  0  0  0  0
   14.2428  -10.4747    0.0000 S   0  0  0  0  0  0  0  0  0  0  0  0
   14.4903  -11.2998    0.0000 C   0  0  0  0  0  0  0  0  0  0  0  0
   15.3153  -11.2998    0.0000 N   0  0  0  0  0  0  0  0  0  0  0  0
   16.3053   -9.2784    0.0000 N   0  0  0  0  0  0  0  0  0  0  0  0
   19.9769  -12.5786    0.0000 C   0  0  0  0  0  0  0  0  0  0  0  0
   20.6782  -12.9912    0.0000 O   0  0  0  0  0  0  0  0  0  0  0  0
   19.2344  -12.9912    0.0000 O   0  0  0  0  0  0  0  0  0  0  0  0
   13.9952  -11.9598    0.0000 N   0  0  0  0  0  0  0  0  0  0  0  0
   22.1309  -11.3277    0.0000 O   0  0  0  0  0  0  0  0  0  0  0  0
   22.8505  -11.7274    0.0000 C   0  0  0  0  0  0  0  0  0  0  0  0
   23.5487  -11.3086    0.0000 C   0  0  0  0  0  0  0  0  0  0  0  0
   22.8505  -12.5525    0.0000 O   0  0  0  0  0  0  0  0  0  0  0  0
   17.0121   -8.8741    0.0000 O   0  0  0  0  0  0  0  0  0  0  0  0
   17.0121   -8.0490    0.0000 C   0  0  0  0  0  0  0  0  0  0  0  0
  1  2  1  0
  2  3  1  0
  3  4  2  0
  4  5  1  0
  5  6  1  0
  1  6  1  1
  1  7  1  0
  7  8  1  0
  2  8  1  0
  7  9  1  1
  9 10  1  0
 10 11  2  0
  8 12  2  0
 10 13  1  0
  4 14  1  0
 13 15  1  0
 15 16  2  0
 16 17  1  0
 17 18  1  0
 18 19  2  0
 15 19  1  0
 13 20  2  0
  3 21  1  0
 21 22  1  0
 21 23  2  0
 18 24  1  0
 14 25  1  0
 25 26  1  0
 26 27  1  0
 26 28  2  0
 20 29  1  0
 29 30  1  0
M  END
$$$$
