508
     RDKit          2D

 24 26  0  0  0  0  0  0  0  0999 V2000
    3.6958   -2.3625    0.0000 S   0  0  0  0  0  0  0  0  0  0  0  0
    6.0933   -0.0748    0.0000 F   0  0  0  0  0  0  0  0  0  0  0  0
    6.8906   -1.4436    0.0000 F   0  0  0  0  0  0  0  0  0  0  0  0
    7.1764   -0.3605    0.0000 F   0  0  0  0  0  0  0  0  0  0  0  0
    3.6958   -0.7784    0.0000 N   0  0  0  0  0  0  0  0  0  0  0  0
    2.3240    1.5978    0.0000 N   0  0  0  0  0  0  0  0  0  0  0  0
    3.6958    0.0137    0.0000 C   0  0  0  0  0  0  0  0  0  0  0  0
    3.0099    0.4098    0.0000 C   0  0  0  0  0  0  0  0  0  0  0  0
    4.3818   -1.1744    0.0000 C   0  0  0  0  0  0  0  0  0  0  0  0
    3.0099   -1.1744    0.0000 C   0  0  0  0  0  0  0  0  0  0  0  0
    3.0099    1.2018    0.0000 C   0  0  0  0  0  0  0  0  0  0  0  0
    4.3818   -1.9664    0.0000 C   0  0  0  0  0  0  0  0  0  0  0  0
    3.0099   -1.9664    0.0000 C   0  0  0  0  0  0  0  0  0  0  0  0
    5.0898   -0.7509    0.0000 C   0  0  0  0  0  0  0  0  0  0  0  0
    2.3018   -0.7509    0.0000 C   0  0  0  0  0  0  0  0  0  0  0  0
    5.8075   -1.1579    0.0000 C   0  0  0  0  0  0  0  0  0  0  0  0
    5.0898   -2.3900    0.0000 C   0  0  0  0  0  0  0  0  0  0  0  0
    2.3018   -2.3900    0.0000 C   0  0  0  0  0  0  0  0  0  0  0  0
    5.8075   -1.9830    0.0000 C   0  0  0  0  0  0  0  0  0  0  0  0
    1.5841   -1.1579    0.0000 C   0  0  0  0  0  0  0  0  0  0  0  0
    1.6380    1.2018    0.0000 C   0  0  0  0  0  0  0  0  0  0  0  0
    2.3240    2.3900    0.0000 C   0  0  0  0  0  0  0  0  0  0  0  0
    1.5841   -1.9830    0.0000 C   0  0  0  0  0  0  0  0  0  0  0  0
    6.4920   -0.7592    0.0000 C   0  0  0  0  0  0  0  0  0  0  0  0
  1 12  1  0
  1 13  1  0
  2 24  1  0
  3 24  1  0
  4 24  1  0
  5  7  1  0
  5  9  1  0
  5 10  1  0
  6 11  1  0
  6 21  1  0
  6 22  1  0
  7  8  1  0
  8 11  1  0
  9 12  2  0
  9 14  1  0
 10 13  2  0
 10 15  1  0
 12 17  1  0
 13 18  1  0
 14 16  2  0
 15 20  2  0
 16 19  1  0
 16 24  1  0
 17 19  2  0
 18 23  2  0
 20 23  1  0
M  END
$$$$
