
     RDKit          2D

 15 15  0  0  0  0  0  0  0  0999 V2000
    9.7846   -4.2592    0.0000 C   0  0  0  0  0  0  0  0  0  0  0  0
    9.7846   -5.0842    0.0000 C   0  0  0  0  0  0  0  0  0  0  0  0
   11.2135   -4.2592    0.0000 C   0  0  0  0  0  0  0  0  0  0  0  0
   11.2135   -5.0842    0.0000 C   0  0  0  0  0  0  0  0  0  0  0  0
   10.4991   -3.8468    0.0000 C   0  0  0  0  0  0  0  0  0  0  0  0
   13.3569   -3.8468    0.0000 C   0  0  0  0  0  0  0  0  0  0  0  0
   13.3569   -3.0218    0.0000 O   0  0  0  0  0  0  0  0  0  0  0  0
   12.6424   -4.2592    0.0000 C   0  0  0  0  0  0  0  0  0  0  0  0
   11.9279   -3.8468    0.0000 C   0  0  0  0  0  0  0  0  0  0  0  0
   14.0713   -4.2592    0.0000 O   0  0  0  0  0  0  0  0  0  0  0  0
    9.0701   -5.4967    0.0000 O   0  0  0  0  0  0  0  0  0  0  0  0
   10.4991   -5.4967    0.0000 C   0  0  0  0  0  0  0  0  0  0  0  0
   10.4991   -6.3217    0.0000 O   0  0  0  0  0  0  0  0  0  0  0  0
   12.2299   -4.9737    0.0000 C   0  0  0  0  0  0  0  0  0  0  0  0
   13.0549   -4.9737    0.0000 N   0  0  0  0  0  0  0  0  0  0  0  0
  2  1  2  0
 11  2  1  0
  9  3  1  0
  4  3  1  0
  1  5  1  0
  5  3  2  0
  2 12  1  0
 12  4  2  0
  6  7  2  0
  8  6  1  0
 10  6  1  0
  8  9  1  0
 12 13  1  0
  8 14  1  6
  8 15  1  0
M  END
$$$$
