779
     RDKit          2D

 17 18  0  0  0  0  0  0  0  0999 V2000
    4.2364    1.8563    0.0000 O   0  0  0  0  0  0  0  0  0  0  0  0
    2.0930    0.6188    0.0000 O   0  0  0  0  0  0  0  0  0  0  0  0
    2.8075    1.8563    0.0000 O   0  0  0  0  0  0  0  0  0  0  0  0
    4.2364   -0.6188    0.0000 N   0  0  0  0  0  0  0  0  0  0  0  0
    5.6885   -0.6474    0.0000 N   0  0  0  0  0  0  0  0  0  0  0  0
    4.9509   -0.2063    0.0000 C   0  0  0  0  0  0  0  0  0  0  0  0
    4.9509    0.6188    0.0000 C   0  0  0  0  0  0  0  0  0  0  0  0
    4.2364   -1.4438    0.0000 C   0  0  0  0  0  0  0  0  0  0  0  0
    3.5220   -0.2063    0.0000 C   0  0  0  0  0  0  0  0  0  0  0  0
    3.5220    0.6188    0.0000 C   0  0  0  0  0  0  0  0  0  0  0  0
    4.2364    1.0313    0.0000 C   0  0  0  0  0  0  0  0  0  0  0  0
    5.6885    1.0599    0.0000 C   0  0  0  0  0  0  0  0  0  0  0  0
    6.4359   -0.2234    0.0000 C   0  0  0  0  0  0  0  0  0  0  0  0
    3.5220   -1.8563    0.0000 C   0  0  0  0  0  0  0  0  0  0  0  0
    6.4359    0.6359    0.0000 C   0  0  0  0  0  0  0  0  0  0  0  0
    2.8075    1.0313    0.0000 C   0  0  0  0  0  0  0  0  0  0  0  0
    7.1488   -0.6386    0.0000 C   0  0  0  0  0  0  0  0  0  0  0  0
  1 11  2  0
  2 16  1  0
  3 16  2  0
  4  6  1  0
  4  8  1  0
  4  9  1  0
  5  6  2  0
  5 13  1  0
  6  7  1  0
  7 11  1  0
  7 12  2  0
  8 14  1  0
  9 10  2  0
 10 11  1  0
 10 16  1  0
 12 15  1  0
 13 15  2  0
 13 17  1  0
M  END
$$$$
