
     RDKit          2D

 47 48  0  0  0  0  0  0  0  0999 V2000
    3.3009    0.0000    0.0000 O   0  0  0  0  0  0  0  0  0  0  0  0
    6.1588    0.8250    0.0000 O   0  0  0  0  0  0  0  0  0  0  0  0
    0.4430    2.4751    0.0000 O   0  0  0  0  0  0  0  0  0  0  0  0
    5.1424    4.0145    0.0000 O   0  0  0  0  0  0  0  0  0  0  0  0
    2.5864    4.5376    0.0000 O   0  0  0  0  0  0  0  0  0  0  0  0
    1.1575    4.5376    0.0000 O   0  0  0  0  0  0  0  0  0  0  0  0
    4.0154    6.1876    0.0000 O   0  0  0  0  0  0  0  0  0  0  0  0
    7.5879    3.3001    0.0000 O   0  0  0  0  0  0  0  0  0  0  0  0
    5.1101    2.1560    0.0000 N   0  0  0  0  0  0  0  0  0  0  0  0
    4.7299    0.8250    0.0000 N   0  0  0  0  0  0  0  0  0  0  0  0
    4.8619    3.5633    0.0000 N   0  0  0  0  0  0  0  0  0  0  0  0
    2.5864    1.2375    0.0000 N   0  0  0  0  0  0  0  0  0  0  0  0
    5.9226    3.5633    0.0000 N   0  0  0  0  0  0  0  0  0  0  0  0
    4.7299    2.4751    0.0000 N   0  0  0  0  0  0  0  0  0  0  0  0
    1.8720    2.4751    0.0000 N   0  0  0  0  0  0  0  0  0  0  0  0
    0.4430    0.8250    0.0000 N   0  0  0  0  0  0  0  0  0  0  0  0
    3.3009    3.3001    0.0000 N   0  0  0  0  0  0  0  0  0  0  0  0
    4.7299    4.9501    0.0000 N   0  0  0  0  0  0  0  0  0  0  0  0
    6.1588    7.4252    0.0000 N   0  0  0  0  0  0  0  0  0  0  0  0
    6.8734    2.0625    0.0000 N   0  0  0  0  0  0  0  0  0  0  0  0
    4.0154    9.4877    0.0000 N   0  0  0  0  0  0  0  0  0  0  0  0
    8.3023    2.0625    0.0000 N   0  0  0  0  0  0  0  0  0  0  0  0
    4.2976    2.0128    0.0000 C   0  0  0  0  0  0  0  0  0  0  0  0
    4.0154    1.2375    0.0000 C   0  0  0  0  0  0  0  0  0  0  0  0
    3.7673    2.6448    0.0000 C   0  0  0  0  0  0  0  0  0  0  0  0
    4.0494    3.4200    0.0000 C   0  0  0  0  0  0  0  0  0  0  0  0
    3.3009    0.8250    0.0000 C   0  0  0  0  0  0  0  0  0  0  0  0
    5.3922    2.9313    0.0000 C   0  0  0  0  0  0  0  0  0  0  0  0
    1.8720    0.8250    0.0000 C   0  0  0  0  0  0  0  0  0  0  0  0
    5.4444    1.2375    0.0000 C   0  0  0  0  0  0  0  0  0  0  0  0
    1.1575    1.2375    0.0000 C   0  0  0  0  0  0  0  0  0  0  0  0
    5.4444    2.0625    0.0000 C   0  0  0  0  0  0  0  0  0  0  0  0
    4.0154    3.7126    0.0000 C   0  0  0  0  0  0  0  0  0  0  0  0
    1.1575    2.0625    0.0000 C   0  0  0  0  0  0  0  0  0  0  0  0
    1.8720    3.3001    0.0000 C   0  0  0  0  0  0  0  0  0  0  0  0
    4.0154    4.5376    0.0000 C   0  0  0  0  0  0  0  0  0  0  0  0
    4.7299    3.3001    0.0000 C   0  0  0  0  0  0  0  0  0  0  0  0
    5.4444    7.0127    0.0000 C   0  0  0  0  0  0  0  0  0  0  0  0
    2.5864    3.7126    0.0000 C   0  0  0  0  0  0  0  0  0  0  0  0
    4.7299    7.4252    0.0000 C   0  0  0  0  0  0  0  0  0  0  0  0
    5.4444    6.1876    0.0000 C   0  0  0  0  0  0  0  0  0  0  0  0
    6.1588    2.4751    0.0000 C   0  0  0  0  0  0  0  0  0  0  0  0
    1.1575    3.7126    0.0000 C   0  0  0  0  0  0  0  0  0  0  0  0
    4.7299    8.2502    0.0000 C   0  0  0  0  0  0  0  0  0  0  0  0
    4.7299    5.7751    0.0000 C   0  0  0  0  0  0  0  0  0  0  0  0
    4.0154    8.6627    0.0000 C   0  0  0  0  0  0  0  0  0  0  0  0
    7.5879    2.4751    0.0000 C   0  0  0  0  0  0  0  0  0  0  0  0
  1 27  2  0
  2 30  2  0
  3 34  2  0
  4 37  2  0
  5 39  2  0
  6 43  1  0
  7 45  2  0
  8 47  2  0
  9 23  1  0
  9 28  1  0
 24 10  1  6
 10 30  1  0
 11 26  1  0
 11 28  2  0
 12 27  1  0
 12 29  1  0
 13 28  1  0
 14 32  1  0
 14 37  1  0
 15 34  1  0
 15 35  1  0
 31 16  1  6
 17 33  1  0
 17 39  1  0
 18 36  1  0
 18 45  1  0
 38 19  1  6
 20 42  1  0
 20 47  1  0
 21 46  1  0
 22 47  1  0
 23 24  1  0
 23 25  1  1
 24 27  1  0
 25 26  1  0
 29 31  1  0
 30 32  1  0
 31 34  1  0
 32 42  2  0
 33 36  1  1
 33 37  1  0
 35 39  1  0
 35 43  1  1
 38 40  1  0
 38 41  1  0
 40 44  1  0
 41 45  1  0
 44 46  1  0
M  END
$$$$
