471
     RDKit          2D

 41 45  0  0  1  0  0  0  0  0999 V2000
   14.2938   -1.4637    0.0000 Cl  0  0  0  0  0  0  0  0  0  0  0  0
    5.6655   -1.4438    0.0000 S   0  0  0  0  0  0  0  0  0  0  0  0
    2.0930   -1.0313    0.0000 O   0  0  0  0  0  0  0  0  0  0  0  0
    2.8075   -2.2688    0.0000 O   0  0  0  0  0  0  0  0  0  0  0  0
    3.5220    0.6188    0.0000 O   0  0  0  0  0  0  0  0  0  0  0  0
   11.3814   -1.4438    0.0000 N   0  0  0  0  0  0  0  0  0  0  0  0
    4.2365   -1.4438    0.0000 C   0  0  0  0  0  0  0  0  0  0  0  0
    3.8240   -2.1582    0.0000 C   0  0  0  0  0  0  0  0  0  0  0  0
    4.6490   -2.1582    0.0000 C   0  0  0  0  0  0  0  0  0  0  0  0
    4.9509   -1.0313    0.0000 C   0  0  0  0  0  0  0  0  0  0  0  0
    3.5220   -1.0313    0.0000 C   0  0  0  0  0  0  0  0  0  0  0  0
    2.8075   -1.4438    0.0000 C   0  0  0  0  0  0  0  0  0  0  0  0
    6.3799   -1.0313    0.0000 C   0  0  0  0  0  0  0  0  0  0  0  0
    6.3799   -0.2063    0.0000 C   0  0  0  0  0  0  0  0  0  0  0  0
    7.0944   -1.4438    0.0000 C   0  0  0  0  0  0  0  0  0  0  0  0
    5.6655    0.2063    0.0000 C   0  0  0  0  0  0  0  0  0  0  0  0
    7.8089   -1.0313    0.0000 C   0  0  0  0  0  0  0  0  0  0  0  0
    7.0944   -2.2688    0.0000 C   0  0  0  0  0  0  0  0  0  0  0  0
    5.6655    1.0313    0.0000 C   0  0  0  0  0  0  0  0  0  0  0  0
    4.9509    1.4438    0.0000 C   0  0  0  0  0  0  0  0  0  0  0  0
    8.5234   -1.4438    0.0000 C   0  0  0  0  0  0  0  0  0  0  0  0
    7.8089   -2.6813    0.0000 C   0  0  0  0  0  0  0  0  0  0  0  0
    4.2365    1.0313    0.0000 C   0  0  0  0  0  0  0  0  0  0  0  0
    6.3799    1.4438    0.0000 C   0  0  0  0  0  0  0  0  0  0  0  0
    8.5234   -2.2688    0.0000 C   0  0  0  0  0  0  0  0  0  0  0  0
    4.9509    2.2688    0.0000 C   0  0  0  0  0  0  0  0  0  0  0  0
    6.3799    2.2688    0.0000 C   0  0  0  0  0  0  0  0  0  0  0  0
    9.2379   -1.0313    0.0000 C   0  0  0  0  0  0  0  0  0  0  0  0
    3.8240    1.7457    0.0000 C   0  0  0  0  0  0  0  0  0  0  0  0
    4.6490    0.3168    0.0000 C   0  0  0  0  0  0  0  0  0  0  0  0
    5.6655    2.6813    0.0000 C   0  0  0  0  0  0  0  0  0  0  0  0
    9.9524   -1.4438    0.0000 C   0  0  0  0  0  0  0  0  0  0  0  0
   10.6668   -1.0313    0.0000 C   0  0  0  0  0  0  0  0  0  0  0  0
   10.6668   -0.2063    0.0000 C   0  0  0  0  0  0  0  0  0  0  0  0
   12.0958   -1.0313    0.0000 C   0  0  0  0  0  0  0  0  0  0  0  0
   11.3814    0.2063    0.0000 C   0  0  0  0  0  0  0  0  0  0  0  0
   12.0958   -0.2063    0.0000 C   0  0  0  0  0  0  0  0  0  0  0  0
   12.8333   -1.4724    0.0000 C   0  0  0  0  0  0  0  0  0  0  0  0
   12.8333    0.2349    0.0000 C   0  0  0  0  0  0  0  0  0  0  0  0
   13.5809   -1.0484    0.0000 C   0  0  0  0  0  0  0  0  0  0  0  0
   13.5809   -0.1891    0.0000 C   0  0  0  0  0  0  0  0  0  0  0  0
  1 40  1  0
  2 10  1  0
  2 13  1  0
  3 12  1  0
  4 12  2  0
  5 23  1  0
  6 33  2  0
  6 35  1  0
  7  8  1  0
  7  9  1  0
  7 10  1  0
  7 11  1  0
  8  9  1  0
 11 12  1  0
 13 14  1  6
 13 15  1  0
 14 16  1  0
 15 17  2  0
 15 18  1  0
 16 19  1  0
 17 21  1  0
 18 22  2  0
 19 20  2  0
 19 24  1  0
 20 23  1  0
 20 26  1  0
 21 25  2  0
 21 28  1  0
 22 25  1  0
 23 29  1  0
 23 30  1  0
 24 27  2  0
 26 31  2  0
 27 31  1  0
 28 32  2  0
 32 33  1  0
 33 34  1  0
 34 36  2  0
 35 37  2  0
 35 38  1  0
 36 37  1  0
 37 39  1  0
 38 40  2  0
 39 41  2  0
 40 41  1  0
M  END
$$$$
