423
     RDKit          2D

 17 17  0  0  1  0  0  0  0  0999 V2000
    3.7935   -0.7466    0.0000 O   0  0  0  0  0  0  0  0  0  0  0  0
    3.7935    0.9034    0.0000 O   0  0  0  0  0  0  0  0  0  0  0  0
    5.2224    1.7284    0.0000 O   0  0  0  0  0  0  0  0  0  0  0  0
    2.3645   -1.5717    0.0000 O   0  0  0  0  0  0  0  0  0  0  0  0
    6.6515    1.7284    0.0000 O   0  0  0  0  0  0  0  0  0  0  0  0
    5.9370    2.9659    0.0000 N   0  0  0  0  0  0  0  0  0  0  0  0
    4.5080    0.4909    0.0000 C   0  0  0  0  0  0  0  0  0  0  0  0
    4.5080   -0.3341    0.0000 C   0  0  0  0  0  0  0  0  0  0  0  0
    5.2224    0.9034    0.0000 C   0  0  0  0  0  0  0  0  0  0  0  0
    3.7935   -1.5717    0.0000 C   0  0  0  0  0  0  0  0  0  0  0  0
    3.0791   -1.9842    0.0000 C   0  0  0  0  0  0  0  0  0  0  0  0
    4.5080   -1.9842    0.0000 C   0  0  0  0  0  0  0  0  0  0  0  0
    3.0791   -2.8092    0.0000 C   0  0  0  0  0  0  0  0  0  0  0  0
    4.5080   -2.8092    0.0000 C   0  0  0  0  0  0  0  0  0  0  0  0
    3.7935   -3.2217    0.0000 C   0  0  0  0  0  0  0  0  0  0  0  0
    5.9370    2.1409    0.0000 C   0  0  0  0  0  0  0  0  0  0  0  0
    1.6500   -1.9842    0.0000 C   0  0  0  0  0  0  0  0  0  0  0  0
  1  8  1  0
  1 10  1  0
  2  7  1  0
  3  9  1  0
  3 16  1  0
  4 11  1  0
  4 17  1  0
  5 16  2  0
  6 16  1  0
  7  8  1  0
  7  9  1  0
 10 11  2  0
 10 12  1  0
 11 13  1  0
 12 14  2  0
 13 15  2  0
 14 15  1  0
M  END
$$$$
