
     RDKit          2D

 19 21  0  0  0  0  0  0  0  0999 V2000
   -2.3176    0.2634    0.0000 C   0  0  0  0  0  0  0  0  0  0  0  0
   -2.1581   -0.5432    0.0000 C   0  0  0  0  0  0  0  0  0  0  0  0
   -1.3811   -0.8067    0.0000 C   0  0  0  0  0  0  0  0  0  0  0  0
   -1.7040    0.8039    0.0000 C   0  0  0  0  0  0  0  0  0  0  0  0
   -0.7667   -0.2652    0.0000 C   0  0  0  0  0  0  0  0  0  0  0  0
   -0.9271    0.5441    0.0000 C   0  0  0  0  0  0  0  0  0  0  0  0
   -0.3929    1.1802    0.0000 C   0  0  0  0  0  0  0  0  0  0  0  0
   -0.0279   -0.6450    0.0000 N   0  0  0  0  0  0  0  0  0  0  0  0
    0.4344    1.1626    0.0000 C   0  0  0  0  0  0  0  0  0  0  0  0
    0.9316    0.5009    0.0000 C   0  0  0  0  0  0  0  0  0  0  0  0
    0.7291   -0.3017    0.0000 C   0  0  0  0  0  0  0  0  0  0  0  0
    1.3225   -0.8763    0.0000 C   0  0  0  0  0  0  0  0  0  0  0  0
    2.1184   -0.6493    0.0000 C   0  0  0  0  0  0  0  0  0  0  0  0
    2.3176    0.1573    0.0000 C   0  0  0  0  0  0  0  0  0  0  0  0
    1.7227    0.7282    0.0000 C   0  0  0  0  0  0  0  0  0  0  0  0
   -0.0481   -1.4647    0.0000 C   0  0  0  0  0  0  0  0  0  0  0  0
   -0.7679   -1.8572    0.0000 N   0  0  0  0  0  0  0  0  0  0  0  0
    0.6515   -1.8922    0.0000 O   0  0  0  0  0  0  0  0  0  0  0  0
    0.8085    1.8922    0.0000 O   0  0  0  0  0  0  0  0  0  0  0  0
  8 11  1  0
  9 10  1  0
  4  1  2  0
 10 11  2  0
  2  3  2  0
 11 12  1  0
  5  6  2  0
 12 13  2  0
  3  5  1  0
 13 14  1  0
  6  7  1  0
 14 15  2  0
 15 10  1  0
  1  2  1  0
  8 16  1  0
  5  8  1  0
 16 17  1  0
  6  4  1  0
 16 18  2  0
  7  9  1  0
  9 19  2  0
M  END
$$$$
