655
     RDKit          2D

 20 23  0  0  1  0  0  0  0  0999 V2000
    7.5769    1.7954    0.0000 O   0  0  0  0  0  0  0  0  0  0  0  0
    2.0916   -1.7576    0.0000 O   0  0  0  0  0  0  0  0  0  0  0  0
    6.5402   -0.0648    0.0000 C   0  0  0  0  0  0  0  0  0  0  0  0
    6.5402    0.7600    0.0000 C   0  0  0  0  0  0  0  0  0  0  0  0
    5.8259   -0.4773    0.0000 C   0  0  0  0  0  0  0  0  0  0  0  0
    5.1114   -0.0648    0.0000 C   0  0  0  0  0  0  0  0  0  0  0  0
    5.8259    1.1726    0.0000 C   0  0  0  0  0  0  0  0  0  0  0  0
    7.3206   -0.3162    0.0000 C   0  0  0  0  0  0  0  0  0  0  0  0
    5.1114    0.7600    0.0000 C   0  0  0  0  0  0  0  0  0  0  0  0
    5.8392   -1.3363    0.0000 C   0  0  0  0  0  0  0  0  0  0  0  0
    7.3206    1.0114    0.0000 C   0  0  0  0  0  0  0  0  0  0  0  0
    7.8021    0.3477    0.0000 C   0  0  0  0  0  0  0  0  0  0  0  0
    6.5402    1.5851    0.0000 C   0  0  0  0  0  0  0  0  0  0  0  0
    4.3609   -0.4830    0.0000 C   0  0  0  0  0  0  0  0  0  0  0  0
    5.0982   -1.7716    0.0000 C   0  0  0  0  0  0  0  0  0  0  0  0
    4.3542   -1.3421    0.0000 C   0  0  0  0  0  0  0  0  0  0  0  0
    3.5964   -0.0176    0.0000 C   0  0  0  0  0  0  0  0  0  0  0  0
    3.5827   -1.7954    0.0000 C   0  0  0  0  0  0  0  0  0  0  0  0
    2.8143   -0.4532    0.0000 C   0  0  0  0  0  0  0  0  0  0  0  0
    2.8075   -1.3480    0.0000 C   0  0  0  0  0  0  0  0  0  0  0  0
  1 11  2  0
  2 20  1  0
  3  4  1  0
  3  5  1  0
  3  8  1  1
  4  7  1  0
  4 11  1  0
  4 13  1  1
  5  6  1  0
  5 10  1  6
  6  9  1  1
  6 14  1  0
  7  9  1  0
  8 12  1  0
 10 15  1  0
 11 12  1  0
 14 16  2  0
 14 17  1  0
 15 16  1  0
 16 18  1  0
 17 19  2  0
 18 20  2  0
 19 20  1  0
M  END
$$$$
