519
     RDKit          2D

 31 33  0  0  1  0  0  0  0  0999 V2000
    7.0831   -1.0977    0.0000 O   0  0  0  0  0  0  0  0  0  0  0  0
    7.7385   -3.4304    0.0000 O   0  0  0  0  0  0  0  0  0  0  0  0
    7.7385   -2.0015    0.0000 O   0  0  0  0  0  0  0  0  0  0  0  0
    5.1355    2.1427    0.0000 O   0  0  0  0  0  0  0  0  0  0  0  0
    6.4937    1.6988    0.0000 O   0  0  0  0  0  0  0  0  0  0  0  0
    6.0195   -2.0521    0.0000 N   0  0  0  0  0  0  0  0  0  0  0  0
    5.9811    0.1304    0.0000 N   0  0  0  0  0  0  0  0  0  0  0  0
    5.2389   -3.1285    0.0000 C   0  0  0  0  0  0  0  0  0  0  0  0
    5.2389   -2.3035    0.0000 C   0  0  0  0  0  0  0  0  0  0  0  0
    6.0195   -3.3799    0.0000 C   0  0  0  0  0  0  0  0  0  0  0  0
    6.5010   -2.7160    0.0000 C   0  0  0  0  0  0  0  0  0  0  0  0
    4.5244   -3.5410    0.0000 C   0  0  0  0  0  0  0  0  0  0  0  0
    4.5244   -1.8909    0.0000 C   0  0  0  0  0  0  0  0  0  0  0  0
    3.8099   -3.1285    0.0000 C   0  0  0  0  0  0  0  0  0  0  0  0
    3.8099   -2.3035    0.0000 C   0  0  0  0  0  0  0  0  0  0  0  0
    6.2758   -1.2679    0.0000 C   0  0  0  0  0  0  0  0  0  0  0  0
    7.3260   -2.7160    0.0000 C   0  0  0  0  0  0  0  0  0  0  0  0
    5.7248   -0.6538    0.0000 C   0  0  0  0  0  0  0  0  0  0  0  0
    4.9175   -0.8239    0.0000 C   0  0  0  0  0  0  0  0  0  0  0  0
    5.4302    0.7445    0.0000 C   0  0  0  0  0  0  0  0  0  0  0  0
    4.6229    0.5743    0.0000 C   0  0  0  0  0  0  0  0  0  0  0  0
    5.6864    1.5287    0.0000 C   0  0  0  0  0  0  0  0  0  0  0  0
    4.0719    1.1884    0.0000 C   0  0  0  0  0  0  0  0  0  0  0  0
    3.2646    1.0182    0.0000 C   0  0  0  0  0  0  0  0  0  0  0  0
    5.3917    2.9269    0.0000 C   0  0  0  0  0  0  0  0  0  0  0  0
    2.7136    1.6323    0.0000 C   0  0  0  0  0  0  0  0  0  0  0  0
    3.0083    0.2341    0.0000 C   0  0  0  0  0  0  0  0  0  0  0  0
    1.9064    1.4622    0.0000 C   0  0  0  0  0  0  0  0  0  0  0  0
    2.2010    0.0639    0.0000 C   0  0  0  0  0  0  0  0  0  0  0  0
    4.8408    3.5410    0.0000 C   0  0  0  0  0  0  0  0  0  0  0  0
    1.6500    0.6780    0.0000 C   0  0  0  0  0  0  0  0  0  0  0  0
  1 16  2  0
  2 17  1  0
  3 17  2  0
  4 22  1  0
  4 25  1  0
  5 22  2  0
  6  9  1  0
  6 11  1  0
  6 16  1  0
 18  7  1  0
 20  7  1  0
  8  9  1  0
  8 10  1  1
  8 12  1  0
  9 13  1  6
 10 11  1  0
 11 17  1  6
 12 14  1  0
 13 15  1  0
 14 15  1  0
 16 18  1  0
 18 19  1  6
 20 21  1  1
 20 22  1  0
 21 23  1  0
 23 24  1  0
 24 26  2  0
 24 27  1  0
 25 30  1  0
 26 28  1  0
 27 29  2  0
 28 31  2  0
 29 31  1  0
M  END
$$$$
