322
     RDKit          2D

 17 18  0  0  1  0  0  0  0  0999 V2000
    4.5079    1.9573    0.0000 F   0  0  0  0  0  0  0  0  0  0  0  0
    3.7464   -1.0026    0.0000 O   0  0  0  0  0  0  0  0  0  0  0  0
    2.1816   -2.4547    0.0000 O   0  0  0  0  0  0  0  0  0  0  0  0
    4.7969   -2.3685    0.0000 O   0  0  0  0  0  0  0  0  0  0  0  0
    1.6500    0.3073    0.0000 O   0  0  0  0  0  0  0  0  0  0  0  0
    3.0790    2.7823    0.0000 O   0  0  0  0  0  0  0  0  0  0  0  0
    3.0790    0.3073    0.0000 N   0  0  0  0  0  0  0  0  0  0  0  0
    2.3645    1.5448    0.0000 N   0  0  0  0  0  0  0  0  0  0  0  0
    2.6665   -1.7873    0.0000 C   0  0  0  0  0  0  0  0  0  0  0  0
    3.0790   -0.5177    0.0000 C   0  0  0  0  0  0  0  0  0  0  0  0
    2.4115   -1.0026    0.0000 C   0  0  0  0  0  0  0  0  0  0  0  0
    3.4915   -1.7873    0.0000 C   0  0  0  0  0  0  0  0  0  0  0  0
    3.9764   -2.4547    0.0000 C   0  0  0  0  0  0  0  0  0  0  0  0
    2.3645    0.7198    0.0000 C   0  0  0  0  0  0  0  0  0  0  0  0
    3.7935    0.7198    0.0000 C   0  0  0  0  0  0  0  0  0  0  0  0
    3.7935    1.5448    0.0000 C   0  0  0  0  0  0  0  0  0  0  0  0
    3.0790    1.9573    0.0000 C   0  0  0  0  0  0  0  0  0  0  0  0
  1 16  1  0
  2 10  1  0
  2 12  1  0
  9  3  1  1
  4 13  1  0
  5 14  2  0
  6 17  2  0
 10  7  1  6
  7 14  1  0
  7 15  1  0
  8 14  1  0
  8 17  1  0
  9 11  1  0
  9 12  1  0
 10 11  1  0
 12 13  1  6
 15 16  2  0
 16 17  1  0
M  END
$$$$
