582
     RDKit          2D

 25 27  0  0  1  0  0  0  0  0999 V2000
    1.6500   -0.4125    0.0000 F   0  0  0  0  0  0  0  0  0  0  0  0
    4.5079    0.4125    0.0000 F   0  0  0  0  0  0  0  0  0  0  0  0
    3.0790   -2.8875    0.0000 F   0  0  0  0  0  0  0  0  0  0  0  0
    2.2540    0.4125    0.0000 O   0  0  0  0  0  0  0  0  0  0  0  0
    4.5359   -0.1178    0.0000 N   0  0  0  0  0  0  0  0  0  0  0  0
    3.7934    2.4750    0.0000 N   0  0  0  0  0  0  0  0  0  0  0  0
    5.3364    0.0818    0.0000 N   0  0  0  0  0  0  0  0  0  0  0  0
    5.2433   -1.2499    0.0000 N   0  0  0  0  0  0  0  0  0  0  0  0
    5.2223    2.4750    0.0000 N   0  0  0  0  0  0  0  0  0  0  0  0
    3.0790    0.4125    0.0000 C   0  0  0  0  0  0  0  0  0  0  0  0
    3.0790    1.2375    0.0000 C   0  0  0  0  0  0  0  0  0  0  0  0
    3.9040    0.4125    0.0000 C   0  0  0  0  0  0  0  0  0  0  0  0
    3.0790   -0.4125    0.0000 C   0  0  0  0  0  0  0  0  0  0  0  0
    2.3645    1.6500    0.0000 C   0  0  0  0  0  0  0  0  0  0  0  0
    3.7934    1.6500    0.0000 C   0  0  0  0  0  0  0  0  0  0  0  0
    2.3645   -0.8250    0.0000 C   0  0  0  0  0  0  0  0  0  0  0  0
    3.7934   -0.8250    0.0000 C   0  0  0  0  0  0  0  0  0  0  0  0
    4.5079    1.2375    0.0000 C   0  0  0  0  0  0  0  0  0  0  0  0
    2.3645   -1.6500    0.0000 C   0  0  0  0  0  0  0  0  0  0  0  0
    3.7934   -1.6500    0.0000 C   0  0  0  0  0  0  0  0  0  0  0  0
    4.4784   -0.9408    0.0000 C   0  0  0  0  0  0  0  0  0  0  0  0
    3.0790   -2.0625    0.0000 C   0  0  0  0  0  0  0  0  0  0  0  0
    5.2223    1.6500    0.0000 C   0  0  0  0  0  0  0  0  0  0  0  0
    4.5079    2.8875    0.0000 C   0  0  0  0  0  0  0  0  0  0  0  0
    5.7736   -0.6178    0.0000 C   0  0  0  0  0  0  0  0  0  0  0  0
  1 16  1  0
  2 18  1  0
  3 22  1  0
 10  4  1  1
  5  7  1  0
  5 12  1  0
  5 21  1  0
  6 15  2  0
  6 24  1  0
  7 25  2  0
  8 21  2  0
  8 25  1  0
  9 23  1  0
  9 24  2  0
 10 11  1  0
 10 12  1  0
 10 13  1  0
 11 14  1  1
 11 15  1  0
 13 16  2  0
 13 17  1  0
 15 18  1  0
 16 19  1  0
 17 20  2  0
 18 23  2  0
 19 22  2  0
 20 22  1  0
M  END
$$$$
