218
     RDKit          2D

 29 33  0  0  1  0  0  0  0  0999 V2000
    4.1869    1.4711    0.0000 F   0  0  0  0  0  0  0  0  0  0  0  0
    5.6158   -1.0040    0.0000 O   0  0  0  0  0  0  0  0  0  0  0  0
    7.0583    2.3247    0.0000 O   0  0  0  0  0  0  0  0  0  0  0  0
    9.2443    1.0813    0.0000 O   0  0  0  0  0  0  0  0  0  0  0  0
    8.5251    2.3161    0.0000 O   0  0  0  0  0  0  0  0  0  0  0  0
    4.1869   -0.1789    0.0000 N   0  0  0  0  0  0  0  0  0  0  0  0
    2.8876   -1.8817    0.0000 N   0  0  0  0  0  0  0  0  0  0  0  0
    7.0678   -0.2075    0.0000 N   0  0  0  0  0  0  0  0  0  0  0  0
    2.8876   -0.4528    0.0000 C   0  0  0  0  0  0  0  0  0  0  0  0
    3.3001   -1.1672    0.0000 C   0  0  0  0  0  0  0  0  0  0  0  0
    3.4379    0.1554    0.0000 C   0  0  0  0  0  0  0  0  0  0  0  0
    4.1018   -0.9946    0.0000 C   0  0  0  0  0  0  0  0  0  0  0  0
    2.0625   -0.4528    0.0000 C   0  0  0  0  0  0  0  0  0  0  0  0
    7.0583   -1.0324    0.0000 C   0  0  0  0  0  0  0  0  0  0  0  0
    1.6500   -1.1672    0.0000 C   0  0  0  0  0  0  0  0  0  0  0  0
    6.6375   -1.7421    0.0000 C   0  0  0  0  0  0  0  0  0  0  0  0
    7.4625   -1.7517    0.0000 C   0  0  0  0  0  0  0  0  0  0  0  0
    2.0625   -1.8817    0.0000 C   0  0  0  0  0  0  0  0  0  0  0  0
    4.9014    0.2336    0.0000 C   0  0  0  0  0  0  0  0  0  0  0  0
    6.3303    0.2336    0.0000 C   0  0  0  0  0  0  0  0  0  0  0  0
    5.6158   -0.1789    0.0000 C   0  0  0  0  0  0  0  0  0  0  0  0
    6.3303    1.0586    0.0000 C   0  0  0  0  0  0  0  0  0  0  0  0
    4.9014    1.0586    0.0000 C   0  0  0  0  0  0  0  0  0  0  0  0
    7.8154    0.2164    0.0000 C   0  0  0  0  0  0  0  0  0  0  0  0
    5.6158    1.4711    0.0000 C   0  0  0  0  0  0  0  0  0  0  0  0
    7.8154    1.0758    0.0000 C   0  0  0  0  0  0  0  0  0  0  0  0
    7.0678    1.4997    0.0000 C   0  0  0  0  0  0  0  0  0  0  0  0
    8.5282    1.4911    0.0000 C   0  0  0  0  0  0  0  0  0  0  0  0
    4.9014   -1.4165    0.0000 C   0  0  0  0  0  0  0  0  0  0  0  0
  1 23  1  0
  2 21  1  0
  2 29  1  0
  3 27  2  0
  4 28  1  0
  5 28  2  0
  6 11  1  0
  6 12  1  0
  6 19  1  0
  7 10  1  0
  7 18  1  0
  8 14  1  0
  8 20  1  0
  8 24  1  0
  9 10  1  0
  9 11  1  1
  9 13  1  0
 10 12  1  1
 13 15  1  0
 14 16  1  0
 14 17  1  0
 15 18  1  0
 16 17  1  0
 19 21  2  0
 19 23  1  0
 20 21  1  0
 20 22  2  0
 22 25  1  0
 22 27  1  0
 23 25  2  0
 24 26  2  0
 26 27  1  0
 26 28  1  0
M  END
$$$$
