518
     RDKit          2D

 18 19  0  0  0  0  0  0  0  0999 V2000
    3.7935    0.9644    0.0000 S   0  0  0  0  0  0  0  0  0  0  0  0
    9.2617   -0.5750    0.0000 O   0  0  0  0  0  0  0  0  0  0  0  0
    8.0241   -1.2896    0.0000 O   0  0  0  0  0  0  0  0  0  0  0  0
    6.7176    0.8033    0.0000 N   0  0  0  0  0  0  0  0  0  0  0  0
    6.7176   -0.5245    0.0000 N   0  0  0  0  0  0  0  0  0  0  0  0
    8.0241    0.1394    0.0000 N   0  0  0  0  0  0  0  0  0  0  0  0
    5.9370    0.5519    0.0000 C   0  0  0  0  0  0  0  0  0  0  0  0
    5.9370   -0.2731    0.0000 C   0  0  0  0  0  0  0  0  0  0  0  0
    4.5080    0.5519    0.0000 C   0  0  0  0  0  0  0  0  0  0  0  0
    5.2224    0.9644    0.0000 C   0  0  0  0  0  0  0  0  0  0  0  0
    5.2224   -0.6856    0.0000 C   0  0  0  0  0  0  0  0  0  0  0  0
    7.1991    0.1394    0.0000 C   0  0  0  0  0  0  0  0  0  0  0  0
    3.0791    0.5519    0.0000 C   0  0  0  0  0  0  0  0  0  0  0  0
    4.5080   -0.2731    0.0000 C   0  0  0  0  0  0  0  0  0  0  0  0
    2.3645    0.9644    0.0000 C   0  0  0  0  0  0  0  0  0  0  0  0
    1.6500    0.5519    0.0000 C   0  0  0  0  0  0  0  0  0  0  0  0
    8.4366   -0.5750    0.0000 C   0  0  0  0  0  0  0  0  0  0  0  0
    9.6742   -1.2896    0.0000 C   0  0  0  0  0  0  0  0  0  0  0  0
  1  9  1  0
  1 13  1  0
  2 17  1  0
  2 18  1  0
  3 17  2  0
  4  7  1  0
  4 12  1  0
  5  8  1  0
  5 12  2  0
  6 12  1  0
  6 17  1  0
  7  8  2  0
  7 10  1  0
  8 11  1  0
  9 10  2  0
  9 14  1  0
 11 14  2  0
 13 15  1  0
 15 16  1  0
M  END
$$$$
