524
     RDKit          2D

 24 26  0  0  1  0  0  0  0  0999 V2000
    7.4202    1.2079    0.0000 Cl  0  0  0  0  0  0  0  0  0  0  0  0
    7.4202   -0.4819    0.0000 S   0  0  0  0  0  0  0  0  0  0  0  0
    4.5079   -1.2870    0.0000 O   0  0  0  0  0  0  0  0  0  0  0  0
    7.8355    0.2309    0.0000 O   0  0  0  0  0  0  0  0  0  0  0  0
    7.0050   -1.1948    0.0000 O   0  0  0  0  0  0  0  0  0  0  0  0
    3.7934   -0.0495    0.0000 N   0  0  0  0  0  0  0  0  0  0  0  0
    4.5079    1.1880    0.0000 N   0  0  0  0  0  0  0  0  0  0  0  0
    8.1331   -0.8972    0.0000 N   0  0  0  0  0  0  0  0  0  0  0  0
    3.7934    0.7755    0.0000 C   0  0  0  0  0  0  0  0  0  0  0  0
    5.2223    0.7755    0.0000 C   0  0  0  0  0  0  0  0  0  0  0  0
    5.2223   -0.0495    0.0000 C   0  0  0  0  0  0  0  0  0  0  0  0
    4.5079   -0.4620    0.0000 C   0  0  0  0  0  0  0  0  0  0  0  0
    3.0790   -0.4620    0.0000 C   0  0  0  0  0  0  0  0  0  0  0  0
    3.0790    1.1880    0.0000 C   0  0  0  0  0  0  0  0  0  0  0  0
    5.9599   -0.4906    0.0000 C   0  0  0  0  0  0  0  0  0  0  0  0
    5.9599    1.2166    0.0000 C   0  0  0  0  0  0  0  0  0  0  0  0
    6.7073   -0.0667    0.0000 C   0  0  0  0  0  0  0  0  0  0  0  0
    2.3644   -0.0495    0.0000 C   0  0  0  0  0  0  0  0  0  0  0  0
    6.7073    0.7927    0.0000 C   0  0  0  0  0  0  0  0  0  0  0  0
    3.0790   -1.2870    0.0000 C   0  0  0  0  0  0  0  0  0  0  0  0
    1.6500   -0.4620    0.0000 C   0  0  0  0  0  0  0  0  0  0  0  0
    2.3644    0.7755    0.0000 C   0  0  0  0  0  0  0  0  0  0  0  0
    2.3644   -1.6995    0.0000 C   0  0  0  0  0  0  0  0  0  0  0  0
    1.6500   -1.2870    0.0000 C   0  0  0  0  0  0  0  0  0  0  0  0
  1 19  1  0
  2  4  2  0
  2  5  2  0
  2  8  1  0
  2 17  1  0
  3 12  2  0
  6  9  1  0
  6 12  1  0
  6 13  1  0
  7  9  1  0
  7 10  1  0
  9 14  1  0
 10 11  2  0
 10 16  1  0
 11 12  1  0
 11 15  1  0
 13 18  2  0
 13 20  1  0
 15 17  2  0
 16 19  2  0
 17 19  1  0
 18 21  1  0
 18 22  1  0
 20 23  2  0
 21 24  2  0
 23 24  1  0
M  END
$$$$
