571
     RDKit          2D

 19 20  0  0  1  0  0  0  0  0999 V2000
    4.5080    0.6045    0.0000 O   0  0  0  0  0  0  0  0  0  0  0  0
    4.5080   -1.0455    0.0000 O   0  0  0  0  0  0  0  0  0  0  0  0
    3.0791   -1.8706    0.0000 N   0  0  0  0  0  0  0  0  0  0  0  0
    3.7935   -0.6330    0.0000 C   0  0  0  0  0  0  0  0  0  0  0  0
    3.0791   -1.0455    0.0000 C   0  0  0  0  0  0  0  0  0  0  0  0
    2.3645   -2.2831    0.0000 C   0  0  0  0  0  0  0  0  0  0  0  0
    3.7935    0.1920    0.0000 C   0  0  0  0  0  0  0  0  0  0  0  0
    1.6500   -1.8706    0.0000 C   0  0  0  0  0  0  0  0  0  0  0  0
    2.3645   -3.1081    0.0000 C   0  0  0  0  0  0  0  0  0  0  0  0
    4.5080    1.4295    0.0000 C   0  0  0  0  0  0  0  0  0  0  0  0
    5.2224    1.8420    0.0000 C   0  0  0  0  0  0  0  0  0  0  0  0
    5.2224    2.6670    0.0000 C   0  0  0  0  0  0  0  0  0  0  0  0
    3.7935    1.8420    0.0000 C   0  0  0  0  0  0  0  0  0  0  0  0
    5.9600    1.4009    0.0000 C   0  0  0  0  0  0  0  0  0  0  0  0
    4.5080    3.0795    0.0000 C   0  0  0  0  0  0  0  0  0  0  0  0
    3.7935    2.6670    0.0000 C   0  0  0  0  0  0  0  0  0  0  0  0
    5.9600    3.1081    0.0000 C   0  0  0  0  0  0  0  0  0  0  0  0
    6.7075    1.8249    0.0000 C   0  0  0  0  0  0  0  0  0  0  0  0
    6.7075    2.6842    0.0000 C   0  0  0  0  0  0  0  0  0  0  0  0
  1  7  1  0
  1 10  1  0
  2  4  1  0
  3  5  1  0
  3  6  1  0
  4  5  1  0
  4  7  1  0
  6  8  1  0
  6  9  1  0
 10 11  2  0
 10 13  1  0
 11 12  1  0
 11 14  1  0
 12 15  2  0
 12 17  1  0
 13 16  2  0
 14 18  2  0
 15 16  1  0
 17 19  2  0
 18 19  1  0
M  END
$$$$
