 
     RDKit          2D

 19 21  0  0  1  0  0  0  0  0999 V2000
   14.7813   -9.8538    0.0000 C   0  0  0  0  0  0  0  0  0  0  0  0
   14.5328  -10.6405    0.0000 C   0  0  0  0  0  0  0  0  0  0  0  0
   14.1188   -9.3570    0.0000 O   0  0  0  0  0  0  0  0  0  0  0  0
   13.4563   -9.8538    0.0000 C   0  0  0  0  0  0  0  0  0  0  0  0
   13.7047  -10.6405    0.0000 C   0  0  0  0  0  0  0  0  0  0  0  0
   13.2079  -11.3030    0.0000 O   0  0  0  0  0  0  0  0  0  0  0  0
   12.6696   -9.5640    0.0000 C   0  0  0  0  0  0  0  0  0  0  0  0
   12.5040   -8.7773    0.0000 O   0  0  0  0  0  0  0  0  0  0  0  0
   15.5680   -9.6054    0.0000 N   0  0  0  0  0  0  0  0  0  0  0  0
   16.1884  -10.9914    0.0000 N   0  0  0  0  0  0  0  0  0  0  0  0
   16.1999  -10.0721    0.0000 C   0  0  0  0  0  0  0  0  0  0  0  0
   16.8195   -9.5856    0.0000 C   0  0  0  0  0  0  0  0  0  0  0  0
   17.7087   -9.7702    0.0000 C   0  0  0  0  0  0  0  0  0  0  0  0
   16.8780  -11.4681    0.0000 C   0  0  0  0  0  0  0  0  0  0  0  0
   18.0258  -10.5090    0.0000 C   0  0  0  0  0  0  0  0  0  0  0  0
   17.6882  -11.2526    0.0000 N   0  0  0  0  0  0  0  0  0  0  0  0
   16.5940   -8.8331    0.0000 N   0  0  0  0  0  0  0  0  0  0  0  0
   15.7324   -8.8316    0.0000 C   0  0  0  0  0  0  0  0  0  0  0  0
   18.1854   -9.0806    0.0000 O   0  0  0  0  0  0  0  0  0  0  0  0
  1  2  1  0
  1  3  1  0
  3  4  1  0
  4  5  1  0
  2  5  1  0
  5  6  1  6
  4  7  1  1
  7  8  1  0
  1  9  1  1
 12 13  1  0
 10 14  2  0
 13 15  1  0
 11 12  2  0
 14 16  1  0
 10 11  1  0
 15 16  1  0
 12 17  1  0
 17 18  2  0
 18  9  1  0
 11  9  1  0
 13 19  1  6
M  END
$$$$
