455
     RDKit          2D

 27 30  0  0  0  0  0  0  0  0999 V2000
    1.6500    2.6662    0.0000 Cl  0  0  0  0  0  0  0  0  0  0  0  0
    5.5304   -2.1411    0.0000 O   0  0  0  0  0  0  0  0  0  0  0  0
    4.1014   -2.1411    0.0000 O   0  0  0  0  0  0  0  0  0  0  0  0
    4.8159   -0.9036    0.0000 N   0  0  0  0  0  0  0  0  0  0  0  0
    6.1801    1.3352    0.0000 N   0  0  0  0  0  0  0  0  0  0  0  0
    4.8159    0.7464    0.0000 C   0  0  0  0  0  0  0  0  0  0  0  0
    5.5304    0.3339    0.0000 C   0  0  0  0  0  0  0  0  0  0  0  0
    4.1014    0.3339    0.0000 C   0  0  0  0  0  0  0  0  0  0  0  0
    4.8159    1.5714    0.0000 C   0  0  0  0  0  0  0  0  0  0  0  0
    5.5304   -0.4911    0.0000 C   0  0  0  0  0  0  0  0  0  0  0  0
    4.1014   -0.4911    0.0000 C   0  0  0  0  0  0  0  0  0  0  0  0
    4.0727    1.9294    0.0000 C   0  0  0  0  0  0  0  0  0  0  0  0
    5.5592    1.9294    0.0000 C   0  0  0  0  0  0  0  0  0  0  0  0
    3.8890    2.7337    0.0000 C   0  0  0  0  0  0  0  0  0  0  0  0
    4.4034    3.3787    0.0000 C   0  0  0  0  0  0  0  0  0  0  0  0
    5.2284    3.3787    0.0000 C   0  0  0  0  0  0  0  0  0  0  0  0
    5.7428    2.7337    0.0000 C   0  0  0  0  0  0  0  0  0  0  0  0
    3.4518    1.3352    0.0000 C   0  0  0  0  0  0  0  0  0  0  0  0
    4.8159   -1.7286    0.0000 C   0  0  0  0  0  0  0  0  0  0  0  0
    3.0718    2.9996    0.0000 C   0  0  0  0  0  0  0  0  0  0  0  0
    6.5600    2.9996    0.0000 C   0  0  0  0  0  0  0  0  0  0  0  0
    2.6286    1.5822    0.0000 C   0  0  0  0  0  0  0  0  0  0  0  0
    2.4374    2.4200    0.0000 C   0  0  0  0  0  0  0  0  0  0  0  0
    7.1944    2.4199    0.0000 C   0  0  0  0  0  0  0  0  0  0  0  0
    7.0032    1.5821    0.0000 C   0  0  0  0  0  0  0  0  0  0  0  0
    5.5304   -2.9662    0.0000 C   0  0  0  0  0  0  0  0  0  0  0  0
    6.2448   -3.3787    0.0000 C   0  0  0  0  0  0  0  0  0  0  0  0
  1 23  1  0
  2 19  1  0
  2 26  1  0
  3 19  2  0
  4 10  1  0
  4 11  1  0
  4 19  1  0
  5 13  2  0
  5 25  1  0
  6  7  1  0
  6  8  1  0
  6  9  2  0
  7 10  1  0
  8 11  1  0
  9 12  1  0
  9 13  1  0
 12 14  2  0
 12 18  1  0
 13 17  1  0
 14 15  1  0
 14 20  1  0
 15 16  1  0
 16 17  1  0
 17 21  2  0
 18 22  2  0
 20 23  2  0
 21 24  1  0
 22 23  1  0
 24 25  2  0
 26 27  1  0
M  END
$$$$
