336
     RDKit          2D

 14 14  0  0  0  0  0  0  0  0999 V2000
    3.7150   -0.6545    0.0000 O   0  0  0  0  0  0  0  0  0  0  0  0
    1.6499    0.1275    0.0000 O   0  0  0  0  0  0  0  0  0  0  0  0
    2.0915   -1.2315    0.0000 O   0  0  0  0  0  0  0  0  0  0  0  0
    7.0062    1.2315    0.0000 O   0  0  0  0  0  0  0  0  0  0  0  0
    2.2630   -0.4245    0.0000 N   0  0  0  0  0  0  0  0  0  0  0  0
    5.7801    0.1275    0.0000 N   0  0  0  0  0  0  0  0  0  0  0  0
    6.5647   -0.1275    0.0000 N   0  0  0  0  0  0  0  0  0  0  0  0
    7.9624    0.1696    0.0000 N   0  0  0  0  0  0  0  0  0  0  0  0
    4.3824   -0.1696    0.0000 C   0  0  0  0  0  0  0  0  0  0  0  0
    4.1275    0.6150    0.0000 C   0  0  0  0  0  0  0  0  0  0  0  0
    3.0476   -0.1696    0.0000 C   0  0  0  0  0  0  0  0  0  0  0  0
    3.3025    0.6150    0.0000 C   0  0  0  0  0  0  0  0  0  0  0  0
    5.1670   -0.4245    0.0000 C   0  0  0  0  0  0  0  0  0  0  0  0
    7.1777    0.4245    0.0000 C   0  0  0  0  0  0  0  0  0  0  0  0
  1  9  1  0
  1 11  1  0
  2  5  1  0
  3  5  2  0
  4 14  2  0
  5 11  1  0
  6  7  1  0
  6 13  2  0
  7 14  1  0
  8 14  1  0
  9 10  2  0
  9 13  1  0
 10 12  1  0
 11 12  2  0
M  CHG  2   2  -1   5   1
M  END
$$$$
