639
     RDKit          2D

 25 27  0  0  1  0  0  0  0  0999 V2000
    4.5080   -0.9085    0.0000 Cl  0  0  0  0  0  0  0  0  0  0  0  0
    1.6500   -0.9085    0.0000 Cl  0  0  0  0  0  0  0  0  0  0  0  0
    8.0804   -1.3210    0.0000 Cl  0  0  0  0  0  0  0  0  0  0  0  0
    3.0791   -0.0835    0.0000 S   0  0  0  0  0  0  0  0  0  0  0  0
    4.5080    1.5665    0.0000 N   0  0  0  0  0  0  0  0  0  0  0  0
    5.4012    2.5585    0.0000 N   0  0  0  0  0  0  0  0  0  0  0  0
    3.7935    0.3290    0.0000 C   0  0  0  0  0  0  0  0  0  0  0  0
    4.5080   -0.0835    0.0000 C   0  0  0  0  0  0  0  0  0  0  0  0
    3.7935    1.1540    0.0000 C   0  0  0  0  0  0  0  0  0  0  0  0
    5.2224    0.3290    0.0000 C   0  0  0  0  0  0  0  0  0  0  0  0
    5.9370   -0.0835    0.0000 C   0  0  0  0  0  0  0  0  0  0  0  0
    3.0791   -0.9085    0.0000 C   0  0  0  0  0  0  0  0  0  0  0  0
    5.2616    1.2309    0.0000 C   0  0  0  0  0  0  0  0  0  0  0  0
    4.5942    2.3870    0.0000 C   0  0  0  0  0  0  0  0  0  0  0  0
    6.6515    0.3290    0.0000 C   0  0  0  0  0  0  0  0  0  0  0  0
    5.9370   -0.9085    0.0000 C   0  0  0  0  0  0  0  0  0  0  0  0
    5.8137    1.8441    0.0000 C   0  0  0  0  0  0  0  0  0  0  0  0
    7.3659   -0.0835    0.0000 C   0  0  0  0  0  0  0  0  0  0  0  0
    6.6515   -1.3210    0.0000 C   0  0  0  0  0  0  0  0  0  0  0  0
    3.7935   -1.3210    0.0000 C   0  0  0  0  0  0  0  0  0  0  0  0
    2.3645   -1.3210    0.0000 C   0  0  0  0  0  0  0  0  0  0  0  0
    7.3659   -0.9085    0.0000 C   0  0  0  0  0  0  0  0  0  0  0  0
    3.7935   -2.1460    0.0000 C   0  0  0  0  0  0  0  0  0  0  0  0
    2.3645   -2.1460    0.0000 C   0  0  0  0  0  0  0  0  0  0  0  0
    3.0791   -2.5585    0.0000 C   0  0  0  0  0  0  0  0  0  0  0  0
  1 20  1  0
  2 21  1  0
  3 22  1  0
  4  7  1  0
  4 12  1  0
  5  9  1  0
  5 13  1  0
  5 14  1  0
  6 14  2  0
  6 17  1  0
  7  8  1  0
  7  9  1  0
  8 10  1  0
 10 11  1  0
 11 15  2  0
 11 16  1  0
 12 20  2  0
 12 21  1  0
 13 17  2  0
 15 18  1  0
 16 19  2  0
 18 22  2  0
 19 22  1  0
 20 23  1  0
 21 24  2  0
 23 25  2  0
 24 25  1  0
M  END
$$$$
