701
     RDKit          2D

 35 37  0  0  1  0  0  0  0  0999 V2000
    3.7935   -1.1931    0.0000 S   0  0  0  0  0  0  0  0  0  0  0  0
    3.7935    1.2819    0.0000 O   0  0  0  0  0  0  0  0  0  0  0  0
    4.5080    3.3445    0.0000 O   0  0  0  0  0  0  0  0  0  0  0  0
    2.4878    4.0345    0.0000 O   0  0  0  0  0  0  0  0  0  0  0  0
    2.9685   -1.1931    0.0000 O   0  0  0  0  0  0  0  0  0  0  0  0
    4.6185   -1.1931    0.0000 O   0  0  0  0  0  0  0  0  0  0  0  0
    3.7935    2.1069    0.0000 O   0  0  0  0  0  0  0  0  0  0  0  0
    3.7935   -0.3681    0.0000 N   0  0  0  0  0  0  0  0  0  0  0  0
    5.2224    2.1069    0.0000 N   0  0  0  0  0  0  0  0  0  0  0  0
    3.7935   -4.4932    0.0000 N   0  0  0  0  0  0  0  0  0  0  0  0
    4.5080    0.8694    0.0000 C   0  0  0  0  0  0  0  0  0  0  0  0
    5.2224    1.2819    0.0000 C   0  0  0  0  0  0  0  0  0  0  0  0
    4.5080    0.0444    0.0000 C   0  0  0  0  0  0  0  0  0  0  0  0
    3.0791    0.0444    0.0000 C   0  0  0  0  0  0  0  0  0  0  0  0
    5.9370    0.8694    0.0000 C   0  0  0  0  0  0  0  0  0  0  0  0
    2.3645   -0.3681    0.0000 C   0  0  0  0  0  0  0  0  0  0  0  0
    3.7935    3.7570    0.0000 C   0  0  0  0  0  0  0  0  0  0  0  0
    6.6515    1.2819    0.0000 C   0  0  0  0  0  0  0  0  0  0  0  0
    2.3645   -1.1931    0.0000 C   0  0  0  0  0  0  0  0  0  0  0  0
    1.6500    0.0444    0.0000 C   0  0  0  0  0  0  0  0  0  0  0  0
    3.7072    4.5774    0.0000 C   0  0  0  0  0  0  0  0  0  0  0  0
    3.7935   -2.0182    0.0000 C   0  0  0  0  0  0  0  0  0  0  0  0
    3.0398    3.4214    0.0000 C   0  0  0  0  0  0  0  0  0  0  0  0
    4.5080    2.5194    0.0000 C   0  0  0  0  0  0  0  0  0  0  0  0
    2.9003    4.7490    0.0000 C   0  0  0  0  0  0  0  0  0  0  0  0
    6.6515    2.1069    0.0000 C   0  0  0  0  0  0  0  0  0  0  0  0
    7.3659    0.8694    0.0000 C   0  0  0  0  0  0  0  0  0  0  0  0
    3.0791   -2.4307    0.0000 C   0  0  0  0  0  0  0  0  0  0  0  0
    4.5080   -2.4307    0.0000 C   0  0  0  0  0  0  0  0  0  0  0  0
    7.3659    2.5194    0.0000 C   0  0  0  0  0  0  0  0  0  0  0  0
    8.0804    1.2819    0.0000 C   0  0  0  0  0  0  0  0  0  0  0  0
    3.0791   -3.2557    0.0000 C   0  0  0  0  0  0  0  0  0  0  0  0
    4.5080   -3.2557    0.0000 C   0  0  0  0  0  0  0  0  0  0  0  0
    3.7935   -3.6682    0.0000 C   0  0  0  0  0  0  0  0  0  0  0  0
    8.0804    2.1069    0.0000 C   0  0  0  0  0  0  0  0  0  0  0  0
  1  5  2  0
  1  6  2  0
  1  8  1  0
  1 22  1  0
 11  2  1  1
 17  3  1  6
  3 24  1  0
  4 23  1  0
  4 25  1  0
  7 24  2  0
  8 13  1  0
  8 14  1  0
 12  9  1  0
  9 24  1  0
 10 34  1  0
 11 12  1  0
 11 13  1  0
 12 15  1  1
 14 16  1  0
 15 18  1  0
 16 19  1  0
 16 20  1  0
 17 21  1  0
 17 23  1  0
 18 26  2  0
 18 27  1  0
 21 25  1  0
 22 28  2  0
 22 29  1  0
 26 30  1  0
 27 31  2  0
 28 32  1  0
 29 33  2  0
 30 35  2  0
 31 35  1  0
 32 34  2  0
 33 34  1  0
M  END
$$$$
