389
     RDKit          2D

 12 12  0  0  0  0  0  0  0  0999 V2000
    4.5311    0.4990    0.0000 S   0  0  0  0  0  0  0  0  0  0  0  0
    2.3645   -0.9685    0.0000 O   0  0  0  0  0  0  0  0  0  0  0  0
    3.7935   -0.9685    0.0000 O   0  0  0  0  0  0  0  0  0  0  0  0
    3.4916    1.5386    0.0000 N   0  0  0  0  0  0  0  0  0  0  0  0
    3.0791    0.2690    0.0000 N   0  0  0  0  0  0  0  0  0  0  0  0
    3.7465    0.7540    0.0000 C   0  0  0  0  0  0  0  0  0  0  0  0
    2.4115    0.7540    0.0000 C   0  0  0  0  0  0  0  0  0  0  0  0
    2.6666    1.5386    0.0000 C   0  0  0  0  0  0  0  0  0  0  0  0
    3.9764    2.2060    0.0000 C   0  0  0  0  0  0  0  0  0  0  0  0
    3.0791   -0.5560    0.0000 C   0  0  0  0  0  0  0  0  0  0  0  0
    2.3645   -1.7935    0.0000 C   0  0  0  0  0  0  0  0  0  0  0  0
    1.6500   -2.2060    0.0000 C   0  0  0  0  0  0  0  0  0  0  0  0
  1  6  2  0
  2 10  1  0
  2 11  1  0
  3 10  2  0
  4  6  1  0
  4  8  1  0
  4  9  1  0
  5  6  1  0
  5  7  1  0
  5 10  1  0
  7  8  2  0
 11 12  1  0
M  END
$$$$
