535
     RDKit          2D

 26 28  0  0  1  0  0  0  0  0999 V2000
    3.7935   -0.6744    0.0000 S   0  0  0  0  0  0  0  0  0  0  0  0
    9.4318   -1.0832    0.0000 S   0  0  0  0  0  0  0  0  0  0  0  0
    5.9220    1.1511    0.0000 O   0  0  0  0  0  0  0  0  0  0  0  0
    3.0791    2.2132    0.0000 O   0  0  0  0  0  0  0  0  0  0  0  0
    4.5080    2.2132    0.0000 O   0  0  0  0  0  0  0  0  0  0  0  0
    6.9345    0.1585    0.0000 O   0  0  0  0  0  0  0  0  0  0  0  0
    6.2890   -2.2309    0.0000 O   0  0  0  0  0  0  0  0  0  0  0  0
    4.5080    0.5632    0.0000 N   0  0  0  0  0  0  0  0  0  0  0  0
    5.9220   -0.8499    0.0000 N   0  0  0  0  0  0  0  0  0  0  0  0
    7.0863   -2.0190    0.0000 N   0  0  0  0  0  0  0  0  0  0  0  0
    8.3961   -0.2411    0.0000 N   0  0  0  0  0  0  0  0  0  0  0  0
    9.7404    0.3542    0.0000 N   0  0  0  0  0  0  0  0  0  0  0  0
    4.5080   -0.2619    0.0000 C   0  0  0  0  0  0  0  0  0  0  0  0
    5.3398   -0.2652    0.0000 C   0  0  0  0  0  0  0  0  0  0  0  0
    5.3398    0.5665    0.0000 C   0  0  0  0  0  0  0  0  0  0  0  0
    3.7935    0.9757    0.0000 C   0  0  0  0  0  0  0  0  0  0  0  0
    3.0791   -0.2619    0.0000 C   0  0  0  0  0  0  0  0  0  0  0  0
    3.0791    0.5632    0.0000 C   0  0  0  0  0  0  0  0  0  0  0  0
    3.7935    1.8007    0.0000 C   0  0  0  0  0  0  0  0  0  0  0  0
    6.7194   -0.6380    0.0000 C   0  0  0  0  0  0  0  0  0  0  0  0
    2.3645    0.9757    0.0000 C   0  0  0  0  0  0  0  0  0  0  0  0
    7.3015   -1.2225    0.0000 C   0  0  0  0  0  0  0  0  0  0  0  0
    1.6500    0.5632    0.0000 C   0  0  0  0  0  0  0  0  0  0  0  0
    8.0989   -1.0106    0.0000 C   0  0  0  0  0  0  0  0  0  0  0  0
    8.7389   -1.5312    0.0000 C   0  0  0  0  0  0  0  0  0  0  0  0
    9.2199   -0.2859    0.0000 C   0  0  0  0  0  0  0  0  0  0  0  0
 13  1  1  1
  1 17  1  0
  2 25  1  0
  2 26  1  0
  3 15  2  0
  4 19  1  0
  5 19  2  0
  6 20  2  0
  7 10  1  0
  8 13  1  0
  8 15  1  0
  8 16  1  0
 14  9  1  1
  9 20  1  0
 10 22  2  0
 11 24  1  0
 11 26  2  0
 12 26  1  0
 13 14  1  0
 14 15  1  0
 16 18  2  0
 16 19  1  0
 17 18  1  0
 18 21  1  0
 20 22  1  0
 21 23  2  3
 22 24  1  0
 24 25  2  0
M  END
$$$$
