486
     RDKit          2D

 27 29  0  0  1  0  0  0  0  0999 V2000
    8.8492   -1.5184    0.0000 O   0  0  0  0  0  0  0  0  0  0  0  0
    9.5737    2.2512    0.0000 O   0  0  0  0  0  0  0  0  0  0  0  0
    7.4068    0.9851    0.0000 O   0  0  0  0  0  0  0  0  0  0  0  0
    9.5637   -0.2809    0.0000 C   0  0  0  0  0  0  0  0  0  0  0  0
    8.8492    0.1316    0.0000 C   0  0  0  0  0  0  0  0  0  0  0  0
    9.5637   -1.1059    0.0000 C   0  0  0  0  0  0  0  0  0  0  0  0
   10.3145    0.1372    0.0000 C   0  0  0  0  0  0  0  0  0  0  0  0
    8.8360    0.9908    0.0000 C   0  0  0  0  0  0  0  0  0  0  0  0
    8.1347   -0.2809    0.0000 C   0  0  0  0  0  0  0  0  0  0  0  0
   10.3211    0.9965    0.0000 C   0  0  0  0  0  0  0  0  0  0  0  0
    8.1347   -1.1059    0.0000 C   0  0  0  0  0  0  0  0  0  0  0  0
    9.5769    1.4263    0.0000 C   0  0  0  0  0  0  0  0  0  0  0  0
    9.9762   -1.8204    0.0000 C   0  0  0  0  0  0  0  0  0  0  0  0
   10.3888   -1.1059    0.0000 C   0  0  0  0  0  0  0  0  0  0  0  0
    7.3973    0.1602    0.0000 C   0  0  0  0  0  0  0  0  0  0  0  0
    5.9368   -1.5384    0.0000 C   0  0  0  0  0  0  0  0  0  0  0  0
    6.6497   -1.1231    0.0000 C   0  0  0  0  0  0  0  0  0  0  0  0
    7.3973   -1.5471    0.0000 C   0  0  0  0  0  0  0  0  0  0  0  0
    6.6497   -0.2638    0.0000 C   0  0  0  0  0  0  0  0  0  0  0  0
    5.2240   -1.9536    0.0000 C   0  0  0  0  0  0  0  0  0  0  0  0
    6.3521   -2.2512    0.0000 C   0  0  0  0  0  0  0  0  0  0  0  0
    5.5216   -0.8255    0.0000 C   0  0  0  0  0  0  0  0  0  0  0  0
    4.5079   -1.5438    0.0000 C   0  0  0  0  0  0  0  0  0  0  0  0
    3.7950   -1.9591    0.0000 C   0  0  0  0  0  0  0  0  0  0  0  0
    3.0789   -1.5494    0.0000 C   0  0  0  0  0  0  0  0  0  0  0  0
    2.3660   -1.9646    0.0000 C   0  0  0  0  0  0  0  0  0  0  0  0
    1.6500   -1.5549    0.0000 C   0  0  0  0  0  0  0  0  0  0  0  0
  1  6  1  0
  1 11  1  0
  2 12  2  0
  3 15  1  0
  4  5  1  0
  4  6  1  0
  4  7  1  1
  5  8  1  6
  5  9  1  0
  6 13  1  0
  6 14  1  0
  7 10  1  0
  8 12  1  0
  9 11  2  0
  9 15  1  0
 10 12  1  0
 11 18  1  0
 15 19  2  0
 16 17  1  0
 16 20  1  0
 16 21  1  0
 16 22  1  0
 17 18  2  0
 17 19  1  0
 20 23  1  0
 23 24  1  0
 24 25  1  0
 25 26  1  0
 26 27  1  0
M  END
$$$$
