
     RDKit          2D

 36 36  0  0  0  0  0  0  0  0999 V2000
    5.4537    0.3333    0.0000 C   0  0  0  0  0  0  0  0  0  0  0  0
    5.3253    1.1483    0.0000 C   0  0  0  0  0  0  0  0  0  0  0  0
    4.8121   -0.1852    0.0000 C   0  0  0  0  0  0  0  0  0  0  0  0
    4.5554    1.4447    0.0000 C   0  0  0  0  0  0  0  0  0  0  0  0
    4.0421    0.1111    0.0000 C   0  0  0  0  0  0  0  0  0  0  0  0
   -2.5022    0.3333    0.0000 C   0  0  0  0  0  0  0  0  0  0  0  0
   -3.1439   -0.1852    0.0000 C   0  0  0  0  0  0  0  0  0  0  0  0
   -1.0907    0.5556    0.0000 C   0  0  0  0  0  0  0  0  0  0  0  0
   -0.3208    0.2593    0.0000 C   0  0  0  0  0  0  0  0  0  0  0  0
   -1.6040   -0.7779    0.0000 C   0  0  0  0  0  0  0  0  0  0  0  0
   -4.5554   -0.4074    0.0000 C   0  0  0  0  0  0  0  0  0  0  0  0
   -4.0421    0.9260    0.0000 C   0  0  0  0  0  0  0  0  0  0  0  0
    0.1924    1.5928    0.0000 C   0  0  0  0  0  0  0  0  0  0  0  0
    3.1439    1.2224    0.0000 C   0  0  0  0  0  0  0  0  0  0  0  0
    1.7323    1.0001    0.0000 C   0  0  0  0  0  0  0  0  0  0  0  0
    3.9138    0.9260    0.0000 C   0  0  0  0  0  0  0  0  0  0  0  0
    1.0907    0.4815    0.0000 C   0  0  0  0  0  0  0  0  0  0  0  0
   -0.8340   -1.0742    0.0000 C   0  0  0  0  0  0  0  0  0  0  0  0
   -4.4271   -1.2224    0.0000 C   0  0  0  0  0  0  0  0  0  0  0  0
   -4.8121    1.2224    0.0000 C   0  0  0  0  0  0  0  0  0  0  0  0
   -0.5774    1.8892    0.0000 C   0  0  0  0  0  0  0  0  0  0  0  0
    1.2190   -0.3333    0.0000 C   0  0  0  0  0  0  0  0  0  0  0  0
   -1.7323    0.0370    0.0000 N   0  0  0  0  0  0  0  0  0  0  0  0
   -3.9138    0.1111    0.0000 N   0  0  0  0  0  0  0  0  0  0  0  0
    0.3208    0.7779    0.0000 N   0  0  0  0  0  0  0  0  0  0  0  0
   -0.1924   -0.5556    0.0000 O   0  0  0  0  0  0  0  0  0  0  0  0
   -0.7057   -1.8892    0.0000 O   0  0  0  0  0  0  0  0  0  0  0  0
   -3.6571   -1.5187    0.0000 O   0  0  0  0  0  0  0  0  0  0  0  0
   -5.0687   -1.7410    0.0000 O   0  0  0  0  0  0  0  0  0  0  0  0
   -5.4537    0.7038    0.0000 O   0  0  0  0  0  0  0  0  0  0  0  0
   -4.9404    2.0373    0.0000 O   0  0  0  0  0  0  0  0  0  0  0  0
   -1.2190    1.3706    0.0000 O   0  0  0  0  0  0  0  0  0  0  0  0
   -0.7057    2.7041    0.0000 O   0  0  0  0  0  0  0  0  0  0  0  0
    0.5774   -0.8520    0.0000 O   0  0  0  0  0  0  0  0  0  0  0  0
    1.9890   -0.6297    0.0000 O   0  0  0  0  0  0  0  0  0  0  0  0
    2.5022    0.7038    0.0000 O   0  0  0  0  0  0  0  0  0  0  0  0
  2  1  2  0
  3  1  1  0
  4  2  1  0
  5  3  2  0
  7  6  1  0
  9  8  1  0
 16  4  2  0
 16  5  1  0
 16 14  1  0
 17 15  1  0
 18 10  1  0
 19 11  1  0
 20 12  1  0
 21 13  1  0
 22 17  1  0
 23  6  1  0
 23  8  1  0
 23 10  1  0
 24  7  1  0
 24 11  1  0
 24 12  1  0
 25  9  1  0
 25 13  1  0
 25 17  1  0
 26 18  2  0
 27 18  1  0
 28 19  2  0
 29 19  1  0
 30 20  2  0
 31 20  1  0
 32 21  2  0
 33 21  1  0
 34 22  2  0
 35 22  1  0
 36 14  1  0
 36 15  1  0
M  CHG  3  27  -1  29  -1  31  -1
M  END
$$$$
