120
     RDKit          2D

 12 12  0  0  1  0  0  0  0  0999 V2000
    3.7934    1.8067    0.0000 O   0  0  0  0  0  0  0  0  0  0  0  0
    2.3644    1.8067    0.0000 O   0  0  0  0  0  0  0  0  0  0  0  0
    3.7934    0.1568    0.0000 N   0  0  0  0  0  0  0  0  0  0  0  0
    2.3644    0.1568    0.0000 C   0  0  0  0  0  0  0  0  0  0  0  0
    3.0790    0.5692    0.0000 C   0  0  0  0  0  0  0  0  0  0  0  0
    2.3644   -0.6683    0.0000 C   0  0  0  0  0  0  0  0  0  0  0  0
    3.0790   -1.0808    0.0000 C   0  0  0  0  0  0  0  0  0  0  0  0
    1.6500   -1.0808    0.0000 C   0  0  0  0  0  0  0  0  0  0  0  0
    3.0790    1.3942    0.0000 C   0  0  0  0  0  0  0  0  0  0  0  0
    3.0790   -1.9058    0.0000 C   0  0  0  0  0  0  0  0  0  0  0  0
    1.6500   -1.9058    0.0000 C   0  0  0  0  0  0  0  0  0  0  0  0
    2.3644   -2.3182    0.0000 C   0  0  0  0  0  0  0  0  0  0  0  0
  1  9  1  0
  2  9  2  0
  5  3  1  1
  4  5  1  0
  4  6  1  0
  5  9  1  0
  6  7  2  0
  6  8  1  0
  7 10  1  0
  8 11  2  0
 10 12  2  0
 11 12  1  0
M  END
$$$$
