354
     RDKit          2D

 31 34  0  0  1  0  0  0  0  0999 V2000
    1.6500   -3.6573    0.0000 Cl  0  0  0  0  0  0  0  0  0  0  0  0
    4.5080   -1.1823    0.0000 N   0  0  0  0  0  0  0  0  0  0  0  0
    4.5080    0.4678    0.0000 N   0  0  0  0  0  0  0  0  0  0  0  0
    3.7935   -0.7697    0.0000 C   0  0  0  0  0  0  0  0  0  0  0  0
    5.2224   -0.7697    0.0000 C   0  0  0  0  0  0  0  0  0  0  0  0
    3.7935    0.0553    0.0000 C   0  0  0  0  0  0  0  0  0  0  0  0
    5.2224    0.0553    0.0000 C   0  0  0  0  0  0  0  0  0  0  0  0
    4.5080   -2.0073    0.0000 C   0  0  0  0  0  0  0  0  0  0  0  0
    4.5080    1.2928    0.0000 C   0  0  0  0  0  0  0  0  0  0  0  0
    3.7935   -2.4198    0.0000 C   0  0  0  0  0  0  0  0  0  0  0  0
    5.2224   -2.4198    0.0000 C   0  0  0  0  0  0  0  0  0  0  0  0
    5.2224    1.7053    0.0000 C   0  0  0  0  0  0  0  0  0  0  0  0
    7.3659    2.9428    0.0000 C   0  0  0  0  0  0  0  0  0  0  0  0
    6.6515    2.5303    0.0000 C   0  0  0  0  0  0  0  0  0  0  0  0
    5.2224    2.5303    0.0000 C   0  0  0  0  0  0  0  0  0  0  0  0
    5.9370    1.2928    0.0000 C   0  0  0  0  0  0  0  0  0  0  0  0
    3.7935   -3.2448    0.0000 C   0  0  0  0  0  0  0  0  0  0  0  0
    3.0791   -2.0073    0.0000 C   0  0  0  0  0  0  0  0  0  0  0  0
    5.9370   -2.0073    0.0000 C   0  0  0  0  0  0  0  0  0  0  0  0
    5.2224   -3.2448    0.0000 C   0  0  0  0  0  0  0  0  0  0  0  0
    5.9370    2.9428    0.0000 C   0  0  0  0  0  0  0  0  0  0  0  0
    6.6515    1.7053    0.0000 C   0  0  0  0  0  0  0  0  0  0  0  0
    8.0804    3.3553    0.0000 C   0  0  0  0  0  0  0  0  0  0  0  0
    6.9534    3.6573    0.0000 C   0  0  0  0  0  0  0  0  0  0  0  0
    7.7784    2.2284    0.0000 C   0  0  0  0  0  0  0  0  0  0  0  0
    3.0791   -3.6573    0.0000 C   0  0  0  0  0  0  0  0  0  0  0  0
    2.3645   -2.4198    0.0000 C   0  0  0  0  0  0  0  0  0  0  0  0
    6.6515   -2.4198    0.0000 C   0  0  0  0  0  0  0  0  0  0  0  0
    5.9370   -3.6573    0.0000 C   0  0  0  0  0  0  0  0  0  0  0  0
    2.3645   -3.2448    0.0000 C   0  0  0  0  0  0  0  0  0  0  0  0
    6.6515   -3.2448    0.0000 C   0  0  0  0  0  0  0  0  0  0  0  0
  1 30  1  0
  2  4  1  0
  2  5  1  0
  2  8  1  0
  3  6  1  0
  3  7  1  0
  3  9  1  0
  4  6  1  0
  5  7  1  0
  8 10  1  0
  8 11  1  0
  9 12  1  0
 10 17  2  0
 10 18  1  0
 11 19  2  0
 11 20  1  0
 12 15  2  0
 12 16  1  0
 13 14  1  0
 13 23  1  0
 13 24  1  0
 13 25  1  0
 14 21  2  0
 14 22  1  0
 15 21  1  0
 16 22  2  0
 17 26  1  0
 18 27  2  0
 19 28  1  0
 20 29  2  0
 26 30  2  0
 27 30  1  0
 28 31  2  0
 29 31  1  0
M  END
$$$$
