
     RDKit          2D

 11 12  0  0  0  0  0  0  0  0999 V2000
   11.6665   -8.0871    0.0000 C   0  0  0  0  0  0  0  0  0  0  0  0
   12.2499   -8.6704    0.0000 C   0  0  0  0  0  0  0  0  0  0  0  0
   12.8332   -8.0871    0.0000 C   0  0  0  0  0  0  0  0  0  0  0  0
   12.2499   -7.5037    0.0000 C   0  0  0  0  0  0  0  0  0  0  0  0
   11.5336   -6.2661    0.0000 O   0  0  0  0  0  0  0  0  0  0  0  0
   11.5336   -7.0912    0.0000 C   0  0  0  0  0  0  0  0  0  0  0  0
   12.9619   -7.0912    0.0000 C   0  0  0  0  0  0  0  0  0  0  0  0
   12.9619   -6.2661    0.0000 O   0  0  0  0  0  0  0  0  0  0  0  0
   12.2086   -5.6886    0.0000 Pt  0  0  0  0  0  2  0  0  0  0  0  0
   10.8192   -7.5040    0.0000 O   0  0  0  0  0  0  0  0  0  0  0  0
   13.6768   -7.5031    0.0000 O   0  0  0  0  0  0  0  0  0  0  0  0
  1  2  1  0
  2  3  1  0
  5  6  1  0
  6  4  1  0
  4  7  1  0
  7  8  1  0
  8  9  1  0
  9  5  1  0
  3  4  1  0
  6 10  2  0
  4  1  1  0
  7 11  2  0
M  END
$$$$
