974
     RDKit          2D

 20 19  0  0  0  0  0  0  0  0999 V2000
    2.8075    2.0625    0.0000 O   0  0  0  0  0  0  0  0  0  0  0  0
    7.0944    2.0625    0.0000 O   0  0  0  0  0  0  0  0  0  0  0  0
    2.0930   -0.8250    0.0000 O   0  0  0  0  0  0  0  0  0  0  0  0
    5.6655   -2.0625    0.0000 O   0  0  0  0  0  0  0  0  0  0  0  0
    3.5220    0.8250    0.0000 O   0  0  0  0  0  0  0  0  0  0  0  0
    6.3799    0.8250    0.0000 O   0  0  0  0  0  0  0  0  0  0  0  0
    2.8075    0.4125    0.0000 O   0  0  0  0  0  0  0  0  0  0  0  0
    4.2365   -2.0625    0.0000 O   0  0  0  0  0  0  0  0  0  0  0  0
    4.9509    1.6500    0.0000 N   0  0  0  0  0  0  0  0  0  0  0  0
    4.2365   -0.4125    0.0000 N   0  0  0  0  0  0  0  0  0  0  0  0
    4.9509    0.8250    0.0000 C   0  0  0  0  0  0  0  0  0  0  0  0
    4.2365    0.4125    0.0000 C   0  0  0  0  0  0  0  0  0  0  0  0
    4.2365    2.0625    0.0000 C   0  0  0  0  0  0  0  0  0  0  0  0
    5.6655    2.0625    0.0000 C   0  0  0  0  0  0  0  0  0  0  0  0
    3.5220   -0.8250    0.0000 C   0  0  0  0  0  0  0  0  0  0  0  0
    4.9509   -0.8250    0.0000 C   0  0  0  0  0  0  0  0  0  0  0  0
    3.5220    1.6500    0.0000 C   0  0  0  0  0  0  0  0  0  0  0  0
    6.3799    1.6500    0.0000 C   0  0  0  0  0  0  0  0  0  0  0  0
    2.8075   -0.4125    0.0000 C   0  0  0  0  0  0  0  0  0  0  0  0
    4.9509   -1.6500    0.0000 C   0  0  0  0  0  0  0  0  0  0  0  0
  1 17  1  0
  2 18  1  0
  3 19  1  0
  4 20  1  0
  5 17  2  0
  6 18  2  0
  7 19  2  0
  8 20  2  0
  9 11  1  0
  9 13  1  0
  9 14  1  0
 10 12  1  0
 10 15  1  0
 10 16  1  0
 11 12  1  0
 13 17  1  0
 14 18  1  0
 15 19  1  0
 16 20  1  0
M  END
$$$$
