828
     RDKit          2D

  8  8  0  0  1  0  0  0  0  0999 V2000
    3.6020    0.0231    0.0000 P   0  0  0  0  0  0  0  0  0  0  0  0
    2.0625    0.4356    0.0000 O   0  0  0  0  0  0  0  0  0  0  0  0
    4.4270    0.0231    0.0000 O   0  0  0  0  0  0  0  0  0  0  0  0
    3.6020    0.8481    0.0000 O   0  0  0  0  0  0  0  0  0  0  0  0
    3.6020   -0.8019    0.0000 O   0  0  0  0  0  0  0  0  0  0  0  0
    2.7770    0.0231    0.0000 C   0  0  0  0  0  0  0  0  0  0  0  0
    2.0625   -0.3894    0.0000 C   0  0  0  0  0  0  0  0  0  0  0  0
    1.6500   -1.1039    0.0000 C   0  0  0  0  0  0  0  0  0  0  0  0
  1  3  1  0
  1  4  1  0
  1  5  2  0
  6  1  1  6
  6  2  1  0
  2  7  1  0
  6  7  1  0
  7  8  1  6
M  END
$$$$
