
     RDKit          2D

 17 16  0  0  0  0  0  0  0  0999 V2000
    2.2393   -0.2669    0.0000 C   0  0  0  0  0  0  0  0  0  0  0  0
    2.9538    0.1456    0.0000 C   0  0  0  0  0  0  0  0  0  0  0  0
    3.6682   -0.2669    0.0000 C   0  0  0  0  0  0  0  0  0  0  0  0
    4.3827    0.1456    0.0000 C   0  0  0  0  0  0  0  0  0  0  0  0
    5.0972   -0.2669    0.0000 C   0  0  0  0  0  0  0  0  0  0  0  0
    5.8116    0.1456    0.0000 C   0  0  0  0  0  0  0  0  0  0  0  0
    6.5261   -0.2669    0.0000 C   0  0  0  0  0  0  0  0  0  0  0  0
    7.2406    0.1456    0.0000 C   0  0  0  0  0  0  0  0  0  0  0  0
    7.9551   -0.2669    0.0000 C   0  0  0  0  0  0  0  0  0  0  0  0
    8.6695    0.1456    0.0000 C   0  0  0  0  0  0  0  0  0  0  0  0
    9.3840   -0.2669    0.0000 C   0  0  0  0  0  0  0  0  0  0  0  0
   10.0985    0.1456    0.0000 C   0  0  0  0  0  0  0  0  0  0  0  0
   10.8129   -0.2669    0.0000 O   0  0  0  0  0  0  0  0  0  0  0  0
   11.5274    0.1456    0.0000 S   0  0  0  0  0  0  0  0  0  0  0  0
   12.2419    0.5581    0.0000 O   0  0  0  0  0  0  0  0  0  0  0  0
   11.9399   -0.5689    0.0000 O   0  0  0  0  0  0  0  0  0  0  0  0
   11.1149    0.8601    0.0000 O   0  0  0  0  0  0  0  0  0  0  0  0
  1  2  1  0
  2  3  1  0
  3  4  1  0
  4  5  1  0
  5  6  1  0
  6  7  1  0
  7  8  1  0
  8  9  1  0
  9 10  1  0
 10 11  1  0
 11 12  1  0
 12 13  1  0
 13 14  1  0
 14 15  1  0
 14 16  2  0
 14 17  2  0
M  CHG  1  15  -1
M  END
$$$$
