250
     RDKit          2D

 17 18  0  0  0  0  0  0  0  0999 V2000
    2.4751    0.0000    0.0000 S   0  0  0  0  0  0  0  0  0  0  0  0
    1.6500    0.0000    0.0000 O   0  0  0  0  0  0  0  0  0  0  0  0
    3.3001    0.0000    0.0000 O   0  0  0  0  0  0  0  0  0  0  0  0
    2.4751   -3.3001    0.0000 N   0  0  0  0  0  0  0  0  0  0  0  0
    2.4751    3.3001    0.0000 N   0  0  0  0  0  0  0  0  0  0  0  0
    2.4751   -0.8250    0.0000 C   0  0  0  0  0  0  0  0  0  0  0  0
    2.4751    0.8250    0.0000 C   0  0  0  0  0  0  0  0  0  0  0  0
    1.7606   -1.2375    0.0000 C   0  0  0  0  0  0  0  0  0  0  0  0
    3.1895    1.2375    0.0000 C   0  0  0  0  0  0  0  0  0  0  0  0
    3.1895   -1.2375    0.0000 C   0  0  0  0  0  0  0  0  0  0  0  0
    1.7606    1.2375    0.0000 C   0  0  0  0  0  0  0  0  0  0  0  0
    1.7606   -2.0625    0.0000 C   0  0  0  0  0  0  0  0  0  0  0  0
    3.1895    2.0625    0.0000 C   0  0  0  0  0  0  0  0  0  0  0  0
    3.1895   -2.0625    0.0000 C   0  0  0  0  0  0  0  0  0  0  0  0
    1.7606    2.0625    0.0000 C   0  0  0  0  0  0  0  0  0  0  0  0
    2.4751   -2.4751    0.0000 C   0  0  0  0  0  0  0  0  0  0  0  0
    2.4751    2.4751    0.0000 C   0  0  0  0  0  0  0  0  0  0  0  0
  1  2  2  0
  1  3  2  0
  1  6  1  0
  1  7  1  0
  4 16  1  0
  5 17  1  0
  6  8  2  0
  6 10  1  0
  7  9  2  0
  7 11  1  0
  8 12  1  0
  9 13  1  0
 10 14  2  0
 11 15  2  0
 12 16  2  0
 13 17  2  0
 14 16  1  0
 15 17  1  0
M  END
$$$$
