738
     RDKit          2D

 25 26  0  0  0  0  0  0  0  0999 V2000
    5.6655   -2.6029    0.0000 O   0  0  0  0  0  0  0  0  0  0  0  0
    7.8089    1.1096    0.0000 O   0  0  0  0  0  0  0  0  0  0  0  0
    2.8075   -5.0780    0.0000 N   0  0  0  0  0  0  0  0  0  0  0  0
    8.5234    4.8222    0.0000 N   0  0  0  0  0  0  0  0  0  0  0  0
    2.0930   -3.8405    0.0000 N   0  0  0  0  0  0  0  0  0  0  0  0
    7.0944    4.8222    0.0000 N   0  0  0  0  0  0  0  0  0  0  0  0
    6.3799   -0.5404    0.0000 C   0  0  0  0  0  0  0  0  0  0  0  0
    6.3799   -1.3654    0.0000 C   0  0  0  0  0  0  0  0  0  0  0  0
    7.0944   -0.1279    0.0000 C   0  0  0  0  0  0  0  0  0  0  0  0
    5.6655   -1.7779    0.0000 C   0  0  0  0  0  0  0  0  0  0  0  0
    7.0944    0.6971    0.0000 C   0  0  0  0  0  0  0  0  0  0  0  0
    4.9509   -3.0154    0.0000 C   0  0  0  0  0  0  0  0  0  0  0  0
    7.8089    1.9347    0.0000 C   0  0  0  0  0  0  0  0  0  0  0  0
    4.2365   -2.6029    0.0000 C   0  0  0  0  0  0  0  0  0  0  0  0
    8.5234    2.3472    0.0000 C   0  0  0  0  0  0  0  0  0  0  0  0
    4.9509   -3.8405    0.0000 C   0  0  0  0  0  0  0  0  0  0  0  0
    7.0944    2.3472    0.0000 C   0  0  0  0  0  0  0  0  0  0  0  0
    3.5220   -3.8405    0.0000 C   0  0  0  0  0  0  0  0  0  0  0  0
    7.8089    3.5847    0.0000 C   0  0  0  0  0  0  0  0  0  0  0  0
    3.5220   -3.0154    0.0000 C   0  0  0  0  0  0  0  0  0  0  0  0
    8.5234    3.1722    0.0000 C   0  0  0  0  0  0  0  0  0  0  0  0
    4.2365   -4.2530    0.0000 C   0  0  0  0  0  0  0  0  0  0  0  0
    7.0944    3.1722    0.0000 C   0  0  0  0  0  0  0  0  0  0  0  0
    2.8075   -4.2530    0.0000 C   0  0  0  0  0  0  0  0  0  0  0  0
    7.8089    4.4097    0.0000 C   0  0  0  0  0  0  0  0  0  0  0  0
  1 10  1  0
  1 12  1  0
  2 11  1  0
  2 13  1  0
  3 24  1  0
  4 25  1  0
  5 24  2  3
  6 25  2  3
  7  8  1  0
  7  9  1  0
  8 10  1  0
  9 11  1  0
 12 14  2  0
 12 16  1  0
 13 15  2  0
 13 17  1  0
 14 20  1  0
 15 21  1  0
 16 22  2  0
 17 23  2  0
 18 20  2  0
 18 22  1  0
 18 24  1  0
 19 21  2  0
 19 23  1  0
 19 25  1  0
M  END
$$$$
