674
     RDKit          2D

 21 24  0  0  1  0  0  0  0  0999 V2000
    4.2096   -1.4415    0.0000 O   0  0  0  0  0  0  0  0  0  0  0  0
    7.3588   -1.5573    0.0000 O   0  0  0  0  0  0  0  0  0  0  0  0
    2.4433   -1.0636    0.0000 O   0  0  0  0  0  0  0  0  0  0  0  0
    5.5414    1.3240    0.0000 N   0  0  0  0  0  0  0  0  0  0  0  0
    5.1288   -0.4833    0.0000 C   0  0  0  0  0  0  0  0  0  0  0  0
    5.8105   -0.0186    0.0000 C   0  0  0  0  0  0  0  0  0  0  0  0
    4.3855   -0.1254    0.0000 C   0  0  0  0  0  0  0  0  0  0  0  0
    5.8722   -0.1254    0.0000 C   0  0  0  0  0  0  0  0  0  0  0  0
    6.5538   -0.3765    0.0000 C   0  0  0  0  0  0  0  0  0  0  0  0
    5.1905   -1.3061    0.0000 C   0  0  0  0  0  0  0  0  0  0  0  0
    3.8202   -0.7197    0.0000 C   0  0  0  0  0  0  0  0  0  0  0  0
    6.0558    0.6790    0.0000 C   0  0  0  0  0  0  0  0  0  0  0  0
    4.2019    0.6790    0.0000 C   0  0  0  0  0  0  0  0  0  0  0  0
    6.6155   -1.1993    0.0000 C   0  0  0  0  0  0  0  0  0  0  0  0
    4.7163    1.3240    0.0000 C   0  0  0  0  0  0  0  0  0  0  0  0
    5.9338   -1.6640    0.0000 C   0  0  0  0  0  0  0  0  0  0  0  0
    3.0365   -0.4902    0.0000 C   0  0  0  0  0  0  0  0  0  0  0  0
    3.4101    0.8794    0.0000 C   0  0  0  0  0  0  0  0  0  0  0  0
    2.8335    0.3010    0.0000 C   0  0  0  0  0  0  0  0  0  0  0  0
    5.8993    2.0674    0.0000 C   0  0  0  0  0  0  0  0  0  0  0  0
    1.6501   -0.8367    0.0000 C   0  0  0  0  0  0  0  0  0  0  0  0
  1  6  1  0
  1 11  1  0
 14  2  1  1
  3 17  1  0
  3 21  1  0
  4 12  1  0
  4 15  1  0
  4 20  1  0
  5  6  1  0
  5  7  1  0
  5  8  1  6
  5 10  1  0
  6  9  1  6
  7 11  2  0
  7 13  1  0
  8 12  1  0
  9 14  1  0
 10 16  2  0
 11 17  1  0
 13 15  1  0
 13 18  2  0
 14 16  1  0
 17 19  2  0
 18 19  1  0
M  END
$$$$
