
     RDKit          2D

 23 26  0  0  0  0  0  0  0  0999 V2000
    5.0933   -5.5515    0.0000 C   0  0  0  0  0  0  0  0  0  0  0  0
    6.1822   -6.3701    0.0000 C   0  0  0  0  0  0  0  0  0  0  0  0
    5.6597   -5.9352    0.0000 C   0  0  0  0  0  0  0  0  0  0  0  0
    4.6662   -5.9352    0.0000 C   0  0  0  0  0  0  0  0  0  0  0  0
    4.5215   -5.1055    0.0000 N   0  0  0  0  0  0  0  0  0  0  0  0
    5.9596   -5.5696    0.0000 C   0  0  0  0  0  0  0  0  0  0  0  0
    4.1353   -6.6591    0.0000 C   0  0  0  0  0  0  0  0  0  0  0  0
    4.7670   -6.2764    0.0000 C   0  0  0  0  0  0  0  0  0  0  0  0
    6.8697   -7.5363    0.0000 C   0  0  0  0  0  0  0  0  0  0  0  0
    6.1602   -7.1609    0.0000 O   0  0  0  0  0  0  0  0  0  0  0  0
    7.5685   -7.0977    0.0000 C   0  0  0  0  0  0  0  0  0  0  0  0
    6.9002   -8.3608    0.0000 C   0  0  0  0  0  0  0  0  0  0  0  0
    8.2970   -7.4867    0.0000 C   0  0  0  0  0  0  0  0  0  0  0  0
    8.9953   -7.0487    0.0000 C   0  0  0  0  0  0  0  0  0  0  0  0
    8.9654   -6.2233    0.0000 C   0  0  0  0  0  0  0  0  0  0  0  0
    8.2310   -5.8378    0.0000 C   0  0  0  0  0  0  0  0  0  0  0  0
    7.5357   -6.2780    0.0000 C   0  0  0  0  0  0  0  0  0  0  0  0
    6.2018   -8.7962    0.0000 C   0  0  0  0  0  0  0  0  0  0  0  0
    6.2319   -9.6200    0.0000 C   0  0  0  0  0  0  0  0  0  0  0  0
    6.9618  -10.0067    0.0000 C   0  0  0  0  0  0  0  0  0  0  0  0
    7.6628   -9.5635    0.0000 C   0  0  0  0  0  0  0  0  0  0  0  0
    7.6293   -8.7413    0.0000 C   0  0  0  0  0  0  0  0  0  0  0  0
    4.0968   -4.3980    0.0000 C   0  0  0  0  0  0  0  0  0  0  0  0
  9 11  1  0
  4  5  1  0
  9 12  1  0
  5  1  1  0
 11 13  2  0
  1  6  1  1
 13 14  1  0
  6  2  1  0
 14 15  2  0
  4  7  1  6
 15 16  1  0
  1  8  1  0
 16 17  2  0
 17 11  1  0
  7  8  1  0
 12 18  2  0
 10  9  1  0
 18 19  1  0
  2  3  1  0
 19 20  2  0
  2 10  1  6
 20 21  1  0
  3  4  1  0
 21 22  2  0
 22 12  1  0
  5 23  1  0
M  END
$$$$
