
     RDKit          2D

 29 31  0  0  0  0  0  0  0  0999 V2000
    1.7836    0.0024    0.0000 C   0  0  0  0  0  0  0  0  0  0  0  0
    1.7800    0.8278    0.0000 C   0  0  0  0  0  0  0  0  0  0  0  0
    1.0630    1.2328    0.0000 C   0  0  0  0  0  0  0  0  0  0  0  0
    0.3537    0.8188    0.0000 C   0  0  0  0  0  0  0  0  0  0  0  0
    0.3571   -0.0101    0.0000 C   0  0  0  0  0  0  0  0  0  0  0  0
    1.0748   -0.4157    0.0000 C   0  0  0  0  0  0  0  0  0  0  0  0
    1.7948   -1.6523    0.0000 C   0  0  0  0  0  0  0  0  0  0  0  0
    1.7886   -2.4776    0.0000 C   0  0  0  0  0  0  0  0  0  0  0  0
    2.5009   -2.8912    0.0000 N   0  0  0  0  0  0  0  0  0  0  0  0
    3.2199   -2.4855    0.0000 C   0  0  0  0  0  0  0  0  0  0  0  0
    3.2214   -1.6565    0.0000 N   0  0  0  0  0  0  0  0  0  0  0  0
    2.5085   -1.2424    0.0000 C   0  0  0  0  0  0  0  0  0  0  0  0
    0.3698   -2.4698    0.0000 C   0  0  0  0  0  0  0  0  0  0  0  0
    1.0836   -2.8861    0.0000 C   0  0  0  0  0  0  0  0  0  0  0  0
    1.0796   -1.2417    0.0000 C   0  0  0  0  0  0  0  0  0  0  0  0
    0.3692   -1.6516    0.0000 C   0  0  0  0  0  0  0  0  0  0  0  0
    2.5030   -0.4185    0.0000 N   0  0  0  0  0  0  0  0  0  0  0  0
    1.0561    2.0638    0.0000 C   0  0  0  0  0  0  0  0  0  0  0  0
    1.0561    2.8912    0.0000 C   0  0  0  0  0  0  0  0  0  0  0  0
   -0.3470   -1.2362    0.0000 O   0  0  0  0  0  0  0  0  0  0  0  0
   -1.0680   -1.6427    0.0000 C   0  0  0  0  0  0  0  0  0  0  0  0
   -0.3470   -2.8765    0.0000 O   0  0  0  0  0  0  0  0  0  0  0  0
   -1.0680   -2.4605    0.0000 C   0  0  0  0  0  0  0  0  0  0  0  0
   -1.7842   -2.8719    0.0000 C   0  0  0  0  0  0  0  0  0  0  0  0
   -2.5052   -2.4605    0.0000 O   0  0  0  0  0  0  0  0  0  0  0  0
   -3.2214   -2.8670    0.0000 C   0  0  0  0  0  0  0  0  0  0  0  0
   -1.7842   -1.2314    0.0000 C   0  0  0  0  0  0  0  0  0  0  0  0
   -2.5052   -1.6379    0.0000 O   0  0  0  0  0  0  0  0  0  0  0  0
   -3.2214   -1.2265    0.0000 C   0  0  0  0  0  0  0  0  0  0  0  0
  3  4  1  0
  7 15  1  0
  7  8  1  0
 15 16  2  0
 16 13  1  0
 12 17  1  0
 17  1  1  0
  8  9  2  0
  3 18  1  0
  4  5  2  0
 18 19  3  0
  9 10  1  0
 16 20  1  0
  2  3  2  0
 20 21  1  0
 10 11  2  0
 13 22  1  0
  5  6  1  0
 22 23  1  0
 11 12  1  0
 23 24  1  0
 12  7  2  0
 24 25  1  0
  6  1  2  0
 25 26  1  0
  1  2  1  0
 21 27  1  0
 13 14  2  0
 27 28  1  0
 14  8  1  0
 28 29  1  0
M  END
$$$$
