665
     RDKit          2D

 22 23  0  0  0  0  0  0  0  0999 V2000
    2.9685    1.7245    0.0000 F   0  0  0  0  0  0  0  0  0  0  0  0
    4.6185    1.7245    0.0000 F   0  0  0  0  0  0  0  0  0  0  0  0
    3.7935    2.5496    0.0000 F   0  0  0  0  0  0  0  0  0  0  0  0
    4.6956   -2.1231    0.0000 O   0  0  0  0  0  0  0  0  0  0  0  0
    6.1477    0.3920    0.0000 O   0  0  0  0  0  0  0  0  0  0  0  0
    1.6500    0.4870    0.0000 O   0  0  0  0  0  0  0  0  0  0  0  0
    2.3645    1.7245    0.0000 O   0  0  0  0  0  0  0  0  0  0  0  0
    5.2224   -0.7505    0.0000 N   0  0  0  0  0  0  0  0  0  0  0  0
    6.5282   -1.0281    0.0000 N   0  0  0  0  0  0  0  0  0  0  0  0
    2.3645    0.8995    0.0000 N   0  0  0  0  0  0  0  0  0  0  0  0
    6.1157   -1.7425    0.0000 C   0  0  0  0  0  0  0  0  0  0  0  0
    5.3087   -1.5710    0.0000 C   0  0  0  0  0  0  0  0  0  0  0  0
    6.8302   -2.1550    0.0000 C   0  0  0  0  0  0  0  0  0  0  0  0
    5.9442   -2.5496    0.0000 C   0  0  0  0  0  0  0  0  0  0  0  0
    5.9762   -0.4150    0.0000 C   0  0  0  0  0  0  0  0  0  0  0  0
    4.5080   -0.3380    0.0000 C   0  0  0  0  0  0  0  0  0  0  0  0
    4.5080    0.4870    0.0000 C   0  0  0  0  0  0  0  0  0  0  0  0
    3.7935   -0.7505    0.0000 C   0  0  0  0  0  0  0  0  0  0  0  0
    3.7935    0.8995    0.0000 C   0  0  0  0  0  0  0  0  0  0  0  0
    3.0791    0.4870    0.0000 C   0  0  0  0  0  0  0  0  0  0  0  0
    3.0791   -0.3380    0.0000 C   0  0  0  0  0  0  0  0  0  0  0  0
    3.7935    1.7245    0.0000 C   0  0  0  0  0  0  0  0  0  0  0  0
  1 22  1  0
  2 22  1  0
  3 22  1  0
  4 12  2  0
  5 15  2  0
  6 10  1  0
  7 10  2  0
  8 12  1  0
  8 15  1  0
  8 16  1  0
  9 11  1  0
  9 15  1  0
 10 20  1  0
 11 12  1  0
 11 13  1  0
 11 14  1  0
 16 17  2  0
 16 18  1  0
 17 19  1  0
 18 21  2  0
 19 20  2  0
 19 22  1  0
 20 21  1  0
M  CHG  2   6  -1  10   1
M  END
$$$$
