
     RDKit          2D

 28 29  0  0  0  0  0  0  0  0999 V2000
   -0.7366    1.7384    0.0000 C   0  0  0  0  0  0  0  0  0  0  0  0
    0.0884    1.7384    0.0000 C   0  0  0  0  0  0  0  0  0  0  0  0
    0.0884    0.9134    0.0000 N   0  0  0  0  0  0  0  0  0  0  0  0
   -0.7366    0.9134    0.0000 C   0  0  0  0  0  0  0  0  0  0  0  0
    0.6718    0.3300    0.0000 S   0  0  0  0  0  0  0  0  0  0  0  0
    1.2551   -0.2533    0.0000 O   0  0  0  0  0  0  0  0  0  0  0  0
    1.2684    0.9586    0.0000 O   0  0  0  0  0  0  0  0  0  0  0  0
    0.0555   -0.2985    0.0000 O   0  0  0  0  0  0  0  0  0  0  0  0
   -1.3200    0.3300    0.0000 O   0  0  0  0  0  0  0  0  0  0  0  0
    0.6718    2.3218    0.0000 C   0  0  0  0  0  0  0  0  0  0  0  0
   -1.4511    2.1509    0.0000 N   0  0  0  0  0  0  0  0  0  0  0  0
   -2.1655    1.7384    0.0000 C   0  0  0  0  0  0  0  0  0  0  0  0
   -2.1655    0.9134    0.0000 O   0  0  0  0  0  0  0  0  0  0  0  0
   -2.8800    2.1509    0.0000 C   0  0  0  0  0  0  0  0  0  0  0  0
   -2.8800    2.9759    0.0000 N   0  0  0  0  0  0  0  0  0  0  0  0
   -4.3791    0.6585    0.0000 S   0  0  0  0  0  0  0  0  0  0  0  0
   -3.5945    0.9134    0.0000 C   0  0  0  0  0  0  0  0  0  0  0  0
   -3.5945    1.7384    0.0000 C   0  0  0  0  0  0  0  0  0  0  0  0
   -4.3791    1.9933    0.0000 N   0  0  0  0  0  0  0  0  0  0  0  0
   -4.8640    1.3259    0.0000 C   0  0  0  0  0  0  0  0  0  0  0  0
   -2.1655    3.3884    0.0000 O   0  0  0  0  0  0  0  0  0  0  0  0
   -2.1655    4.2134    0.0000 C   0  0  0  0  0  0  0  0  0  0  0  0
   -1.4511    4.6259    0.0000 C   0  0  0  0  0  0  0  0  0  0  0  0
   -1.4511    5.4509    0.0000 O   0  0  0  0  0  0  0  0  0  0  0  0
   -0.7366    4.2134    0.0000 O   0  0  0  0  0  0  0  0  0  0  0  0
   -2.5780    4.9279    0.0000 C   0  0  0  0  0  0  0  0  0  0  0  0
   -2.9624    3.9999    0.0000 C   0  0  0  0  0  0  0  0  0  0  0  0
   -5.6890    1.3259    0.0000 N   0  0  0  0  0  0  0  0  0  0  0  0
  1  2  1  0
  2  3  1  0
  1  4  1  0
  4  3  1  0
  3  5  1  0
  5  6  1  0
  5  7  2  0
  5  8  2  0
  4  9  2  0
  2 10  1  6
  1 11  1  1
 11 12  1  0
 12 13  2  0
 12 14  1  0
 14 18  1  0
 14 15  2  0
 16 17  1  0
 16 20  1  0
 17 18  2  0
 18 19  1  0
 19 20  2  0
 15 21  1  0
 21 22  1  0
 22 23  1  0
 23 24  2  0
 23 25  1  0
 22 26  1  0
 22 27  1  0
 20 28  1  0
M  CHG  2   6  -1  28   1
M  END
$$$$
