206
     RDKit          2D

 44 49  0  0  1  0  0  0  0  0999 V2000
    9.0369   -1.7075    0.0000 O   0  0  0  0  0  0  0  0  0  0  0  0
   10.1915   -0.4251    0.0000 O   0  0  0  0  0  0  0  0  0  0  0  0
    7.5976   -2.1233    0.0000 O   0  0  0  0  0  0  0  0  0  0  0  0
    6.5468   -1.1549    0.0000 O   0  0  0  0  0  0  0  0  0  0  0  0
   10.4832    0.9737    0.0000 O   0  0  0  0  0  0  0  0  0  0  0  0
    2.2049    1.5700    0.0000 O   0  0  0  0  0  0  0  0  0  0  0  0
   12.8723   -1.7140    0.0000 O   0  0  0  0  0  0  0  0  0  0  0  0
   13.4557    1.0837    0.0000 O   0  0  0  0  0  0  0  0  0  0  0  0
   13.9716   -0.4836    0.0000 O   0  0  0  0  0  0  0  0  0  0  0  0
    7.1074    1.7459    0.0000 N   0  0  0  0  0  0  0  0  0  0  0  0
    5.0836    0.8240    0.0000 N   0  0  0  0  0  0  0  0  0  0  0  0
    7.6474    0.1264    0.0000 C   0  0  0  0  0  0  0  0  0  0  0  0
    8.2224    0.7650    0.0000 C   0  0  0  0  0  0  0  0  0  0  0  0
    6.8083    0.3115    0.0000 C   0  0  0  0  0  0  0  0  0  0  0  0
    7.9109   -0.7290    0.0000 C   0  0  0  0  0  0  0  0  0  0  0  0
    6.5553    1.1328    0.0000 C   0  0  0  0  0  0  0  0  0  0  0  0
    7.9505    1.5802    0.0000 C   0  0  0  0  0  0  0  0  0  0  0  0
    9.1007    0.5924    0.0000 C   0  0  0  0  0  0  0  0  0  0  0  0
    8.7849   -0.9219    0.0000 C   0  0  0  0  0  0  0  0  0  0  0  0
    9.3839   -0.2567    0.0000 C   0  0  0  0  0  0  0  0  0  0  0  0
    5.7484    1.3043    0.0000 C   0  0  0  0  0  0  0  0  0  0  0  0
    6.8524    2.5305    0.0000 C   0  0  0  0  0  0  0  0  0  0  0  0
    5.4935    2.0889    0.0000 C   0  0  0  0  0  0  0  0  0  0  0  0
    6.0455    2.7020    0.0000 C   0  0  0  0  0  0  0  0  0  0  0  0
    7.3518   -1.3357    0.0000 C   0  0  0  0  0  0  0  0  0  0  0  0
    4.6734    2.0868    0.0000 C   0  0  0  0  0  0  0  0  0  0  0  0
    4.4206    1.3066    0.0000 C   0  0  0  0  0  0  0  0  0  0  0  0
    9.8431   -1.8821    0.0000 C   0  0  0  0  0  0  0  0  0  0  0  0
    4.1111    2.7299    0.0000 C   0  0  0  0  0  0  0  0  0  0  0  0
   10.7411    0.1901    0.0000 C   0  0  0  0  0  0  0  0  0  0  0  0
    3.5880    1.1155    0.0000 C   0  0  0  0  0  0  0  0  0  0  0  0
    3.2743    2.5580    0.0000 C   0  0  0  0  0  0  0  0  0  0  0  0
    3.0110    1.7453    0.0000 C   0  0  0  0  0  0  0  0  0  0  0  0
    7.0385   -2.7299    0.0000 C   0  0  0  0  0  0  0  0  0  0  0  0
   11.5488    0.0217    0.0000 C   0  0  0  0  0  0  0  0  0  0  0  0
   12.0984    0.6369    0.0000 C   0  0  0  0  0  0  0  0  0  0  0  0
   11.8067   -0.7620    0.0000 C   0  0  0  0  0  0  0  0  0  0  0  0
   12.6143   -0.9303    0.0000 C   0  0  0  0  0  0  0  0  0  0  0  0
   12.9060    0.4684    0.0000 C   0  0  0  0  0  0  0  0  0  0  0  0
    1.6500    2.1805    0.0000 C   0  0  0  0  0  0  0  0  0  0  0  0
   13.1639   -0.3151    0.0000 C   0  0  0  0  0  0  0  0  0  0  0  0
   12.3226   -2.3292    0.0000 C   0  0  0  0  0  0  0  0  0  0  0  0
   13.1977    1.8673    0.0000 C   0  0  0  0  0  0  0  0  0  0  0  0
   14.5212    0.1317    0.0000 C   0  0  0  0  0  0  0  0  0  0  0  0
 19  1  1  6
  1 28  1  0
 20  2  1  1
  2 30  1  0
  3 25  1  0
  3 34  1  0
  4 25  2  0
  5 30  2  0
  6 33  1  0
  6 40  1  0
  7 38  1  0
  7 42  1  0
  8 39  1  0
  8 43  1  0
  9 41  1  0
  9 44  1  0
 10 16  1  0
 10 17  1  0
 10 22  1  0
 11 21  1  0
 11 27  1  0
 12 13  1  0
 12 14  1  1
 12 15  1  0
 13 17  1  1
 13 18  1  0
 16 14  1  6
 15 19  1  0
 15 25  1  1
 16 21  1  0
 18 20  1  0
 19 20  1  0
 21 23  2  0
 22 24  1  0
 23 24  1  0
 23 26  1  0
 26 27  2  0
 26 29  1  0
 27 31  1  0
 29 32  2  0
 30 35  1  0
 31 33  2  0
 32 33  1  0
 35 36  2  0
 35 37  1  0
 36 39  1  0
 37 38  2  0
 38 41  1  0
 39 41  2  0
M  END
$$$$
