489
     RDKit          2D

 18 18  0  0  1  0  0  0  0  0999 V2000
    4.5080    2.7366    0.0000 S   0  0  0  0  0  0  0  0  0  0  0  0
    4.5080   -1.3885    0.0000 O   0  0  0  0  0  0  0  0  0  0  0  0
    4.9205    2.0221    0.0000 O   0  0  0  0  0  0  0  0  0  0  0  0
    4.0955    3.4511    0.0000 O   0  0  0  0  0  0  0  0  0  0  0  0
    3.0791   -2.2135    0.0000 N   0  0  0  0  0  0  0  0  0  0  0  0
    3.7935    2.3241    0.0000 N   0  0  0  0  0  0  0  0  0  0  0  0
    3.7935   -0.9760    0.0000 C   0  0  0  0  0  0  0  0  0  0  0  0
    3.0791   -1.3885    0.0000 C   0  0  0  0  0  0  0  0  0  0  0  0
    2.3645   -2.6260    0.0000 C   0  0  0  0  0  0  0  0  0  0  0  0
    3.7935   -0.1510    0.0000 C   0  0  0  0  0  0  0  0  0  0  0  0
    3.0791    0.2615    0.0000 C   0  0  0  0  0  0  0  0  0  0  0  0
    4.5080    0.2615    0.0000 C   0  0  0  0  0  0  0  0  0  0  0  0
    2.3645   -3.4511    0.0000 C   0  0  0  0  0  0  0  0  0  0  0  0
    1.6500   -2.2135    0.0000 C   0  0  0  0  0  0  0  0  0  0  0  0
    3.7935    1.4991    0.0000 C   0  0  0  0  0  0  0  0  0  0  0  0
    3.0791    1.0865    0.0000 C   0  0  0  0  0  0  0  0  0  0  0  0
    4.5080    1.0865    0.0000 C   0  0  0  0  0  0  0  0  0  0  0  0
    5.2224    3.1491    0.0000 C   0  0  0  0  0  0  0  0  0  0  0  0
  1  3  2  0
  1  4  2  0
  1  6  1  0
  1 18  1  0
  2  7  1  0
  5  8  1  0
  5  9  1  0
  6 15  1  0
  7  8  1  0
  7 10  1  0
  9 13  1  0
  9 14  1  0
 10 11  2  0
 10 12  1  0
 11 16  1  0
 12 17  2  0
 15 16  2  0
 15 17  1  0
M  END
$$$$
