
     RDKit          2D

 23 26  0  0  0  0  0  0  0  0999 V2000
   -0.3894   -0.9339    0.0000 C   0  0  0  0  0  0  0  0  0  0  0  0
    0.0616   -1.5616    0.0000 N   0  0  0  0  0  0  0  0  0  0  0  0
   -0.3894   -2.1893    0.0000 N   0  0  0  0  0  0  0  0  0  0  0  0
   -1.1544   -1.1693    0.0000 C   0  0  0  0  0  0  0  0  0  0  0  0
   -0.1344   -0.1493    0.0000 C   0  0  0  0  0  0  0  0  0  0  0  0
   -1.1544   -1.9539    0.0000 C   0  0  0  0  0  0  0  0  0  0  0  0
    0.6501   -0.0121    0.0000 N   0  0  0  0  0  0  0  0  0  0  0  0
   -0.6444    0.4194    0.0000 O   0  0  0  0  0  0  0  0  0  0  0  0
   -0.1344   -2.9543    0.0000 C   0  0  0  0  0  0  0  0  0  0  0  0
   -1.8213   -0.7770    0.0000 C   0  0  0  0  0  0  0  0  0  0  0  0
   -1.8213   -2.3659    0.0000 C   0  0  0  0  0  0  0  0  0  0  0  0
   -2.5078   -1.1693    0.0000 C   0  0  0  0  0  0  0  0  0  0  0  0
   -2.5078   -1.9539    0.0000 C   0  0  0  0  0  0  0  0  0  0  0  0
    0.9838    0.7966    0.0000 C   0  0  0  0  0  0  0  0  0  0  0  0
    0.3512    1.4272    0.0000 C   0  0  0  0  0  0  0  0  0  0  0  0
    1.8770    0.7977    0.0000 C   0  0  0  0  0  0  0  0  0  0  0  0
    2.5078    1.4302    0.0000 C   0  0  0  0  0  0  0  0  0  0  0  0
    0.3500    2.3205    0.0000 C   0  0  0  0  0  0  0  0  0  0  0  0
    2.5066    2.3235    0.0000 C   0  0  0  0  0  0  0  0  0  0  0  0
    0.9808    2.9531    0.0000 C   0  0  0  0  0  0  0  0  0  0  0  0
    1.8741    2.9543    0.0000 C   0  0  0  0  0  0  0  0  0  0  0  0
    1.5365    2.2472    0.0000 N   0  0  0  0  0  0  0  0  0  0  0  0
    1.2869    1.4795    0.0000 C   0  0  0  0  0  0  0  0  0  0  0  0
  2  1  2  0
  4  1  1  0
  5  1  1  0
  3  2  1  0
  9  3  1  0
  6  3  1  0
  6  4  2  0
 10  4  1  0
  7  5  1  0
  8  5  2  0
 11  6  1  0
 14  7  1  6
 12 10  2  0
 13 11  2  0
 13 12  1  0
 15 14  1  0
 16 14  1  0
 18 15  1  6
 17 16  1  6
 19 17  1  0
 20 18  1  0
 21 19  1  0
 21 20  1  0
 17 22  1  0
 18 22  1  0
 22 23  1  0
M  END
$$$$
