
     RDKit          2D

 32 34  0  0  1  0  0  0  0  0999 V2000
    7.7581   -7.2907    0.0000 C   0  0  0  0  0  0  0  0  0  0  0  0
    8.4726   -6.8782    0.0000 C   0  0  0  0  0  0  0  0  0  0  0  0
    7.0436   -6.8782    0.0000 C   0  0  0  0  0  0  0  0  0  0  0  0
    9.1789   -7.2858    0.0000 N   0  0  0  0  0  0  0  0  0  0  0  0
    7.7581   -8.1157    0.0000 C   0  0  0  0  0  0  0  0  0  0  0  0
    6.3292   -7.2907    0.0000 C   0  0  0  0  0  0  0  0  0  0  0  0
    9.1781   -8.1108    0.0000 C   0  0  0  0  0  0  0  0  0  0  0  0
    7.0436   -8.5282    0.0000 C   0  0  0  0  0  0  0  0  0  0  0  0
    9.8922   -8.5240    0.0000 C   0  0  0  0  0  0  0  0  0  0  0  0
    6.3292   -8.1157    0.0000 C   0  0  0  0  0  0  0  0  0  0  0  0
    9.1766   -9.7608    0.0000 N   0  0  0  0  0  0  0  0  0  0  0  0
    9.8914   -9.3490    0.0000 C   0  0  0  0  0  0  0  0  0  0  0  0
    8.4633   -8.5226    0.0000 C   0  0  0  0  0  0  0  0  0  0  0  0
    8.4726   -6.0532    0.0000 O   0  0  0  0  0  0  0  0  0  0  0  0
    8.4625   -9.3476    0.0000 C   0  0  0  0  0  0  0  0  0  0  0  0
    5.6147   -8.5282    0.0000 N   0  0  0  0  0  0  0  0  0  0  0  0
    7.0436   -9.3532    0.0000 Cl  0  0  0  0  0  0  0  0  0  0  0  0
    7.0436   -6.0532    0.0000 O   0  0  0  0  0  0  0  0  0  0  0  0
   13.4634   -9.7650    0.0000 C   0  0  0  0  0  0  0  0  0  0  0  0
   10.6071   -8.1122    0.0000 O   0  0  0  0  0  0  0  0  0  0  0  0
   12.0337  -10.5886    0.0000 C   0  0  0  0  0  0  0  0  0  0  0  0
   14.1783   -9.3532    0.0000 F   0  0  0  0  0  0  0  0  0  0  0  0
   12.7493   -9.3517    0.0000 C   0  0  0  0  0  0  0  0  0  0  0  0
   13.4626  -10.5899    0.0000 C   0  0  0  0  0  0  0  0  0  0  0  0
   12.0345   -9.7636    0.0000 C   0  0  0  0  0  0  0  0  0  0  0  0
   12.7477  -11.0018    0.0000 C   0  0  0  0  0  0  0  0  0  0  0  0
    9.1758  -10.5858    0.0000 C   0  0  0  0  0  0  0  0  0  0  0  0
    9.8899  -10.9990    0.0000 C   0  0  0  0  0  0  0  0  0  0  0  0
   11.3188  -11.0004    0.0000 O   0  0  0  0  0  0  0  0  0  0  0  0
   10.6047  -10.5872    0.0000 C   0  0  0  0  0  0  0  0  0  0  0  0
    6.3292   -5.6407    0.0000 C   0  0  0  0  0  0  0  0  0  0  0  0
   11.3211   -8.5254    0.0000 C   0  0  0  0  0  0  0  0  0  0  0  0
  2  1  1  0
  3  1  2  0
  5  1  1  0
  4  2  1  0
 14  2  2  0
  6  3  1  0
 18  3  1  0
  7  4  1  1
  8  5  2  0
 10  6  2  0
  9  7  1  0
 13  7  1  0
 10  8  1  0
 17  8  1  0
 12  9  1  0
  9 20  1  1
 16 10  1  0
 15 11  1  0
 27 11  1  0
 12 11  1  0
 15 13  1  0
 31 18  1  0
 24 19  2  0
 22 19  1  0
 23 19  1  0
 32 20  1  0
 29 21  1  0
 25 21  1  0
 26 21  2  0
 25 23  2  0
 26 24  1  0
 28 27  1  0
 30 28  1  0
 30 29  1  0
M  END
$$$$
