26987
     RDKit          2D

 24 26  0  0  1  0  0  0  0  0999 V2000
    2.4751   -3.0174    0.0000 Cl  0  0  0  0  0  0  0  0  0  0  0  0
    3.3001    0.2827    0.0000 O   0  0  0  0  0  0  0  0  0  0  0  0
    5.7706    1.7979    0.0000 N   0  0  0  0  0  0  0  0  0  0  0  0
    4.9501    1.7117    0.0000 C   0  0  0  0  0  0  0  0  0  0  0  0
    4.6146    2.4653    0.0000 C   0  0  0  0  0  0  0  0  0  0  0  0
    5.2276    3.0174    0.0000 C   0  0  0  0  0  0  0  0  0  0  0  0
    5.9421    2.6049    0.0000 C   0  0  0  0  0  0  0  0  0  0  0  0
    4.5376    0.9972    0.0000 C   0  0  0  0  0  0  0  0  0  0  0  0
    3.7126    0.9972    0.0000 C   0  0  0  0  0  0  0  0  0  0  0  0
    6.3226    1.1848    0.0000 C   0  0  0  0  0  0  0  0  0  0  0  0
    2.4751    0.2827    0.0000 C   0  0  0  0  0  0  0  0  0  0  0  0
    2.4751   -0.5424    0.0000 C   0  0  0  0  0  0  0  0  0  0  0  0
    2.4751    1.1077    0.0000 C   0  0  0  0  0  0  0  0  0  0  0  0
    1.6500    0.2827    0.0000 C   0  0  0  0  0  0  0  0  0  0  0  0
    1.7606   -0.9549    0.0000 C   0  0  0  0  0  0  0  0  0  0  0  0
    3.1895   -0.9549    0.0000 C   0  0  0  0  0  0  0  0  0  0  0  0
    3.1895    1.5202    0.0000 C   0  0  0  0  0  0  0  0  0  0  0  0
    1.7606    1.5202    0.0000 C   0  0  0  0  0  0  0  0  0  0  0  0
    1.7606   -1.7799    0.0000 C   0  0  0  0  0  0  0  0  0  0  0  0
    3.1895   -1.7799    0.0000 C   0  0  0  0  0  0  0  0  0  0  0  0
    3.1895    2.3452    0.0000 C   0  0  0  0  0  0  0  0  0  0  0  0
    1.7606    2.3452    0.0000 C   0  0  0  0  0  0  0  0  0  0  0  0
    2.4751   -2.1924    0.0000 C   0  0  0  0  0  0  0  0  0  0  0  0
    2.4751    2.7577    0.0000 C   0  0  0  0  0  0  0  0  0  0  0  0
  1 23  1  0
  2  9  1  0
 11  2  1  0
  3  4  1  0
  3  7  1  0
  3 10  1  0
  4  5  1  0
  4  8  1  1
  5  6  1  0
  6  7  1  0
  8  9  1  0
 11 12  1  0
 11 13  1  0
 11 14  1  6
 12 15  2  0
 12 16  1  0
 13 17  2  0
 13 18  1  0
 15 19  1  0
 16 20  2  0
 17 21  1  0
 18 22  2  0
 19 23  2  0
 20 23  1  0
 21 24  2  0
 22 24  1  0
M  END
$$$$
