808
     RDKit          2D

 24 26  0  0  1  0  0  0  0  0999 V2000
    5.9484    2.7900    0.0000 Cl  0  0  0  0  0  0  0  0  0  0  0  0
    7.0504    1.5619    0.0000 S   0  0  0  0  0  0  0  0  0  0  0  0
    5.4742   -0.9608    0.0000 O   0  0  0  0  0  0  0  0  0  0  0  0
    6.8802    2.3692    0.0000 O   0  0  0  0  0  0  0  0  0  0  0  0
    7.2205    0.7546    0.0000 O   0  0  0  0  0  0  0  0  0  0  0  0
    3.8596   -1.3010    0.0000 N   0  0  0  0  0  0  0  0  0  0  0  0
    4.1159   -0.5169    0.0000 N   0  0  0  0  0  0  0  0  0  0  0  0
    7.8576    1.7320    0.0000 N   0  0  0  0  0  0  0  0  0  0  0  0
    4.3411   -1.9650    0.0000 C   0  0  0  0  0  0  0  0  0  0  0  0
    3.8596   -2.6289    0.0000 C   0  0  0  0  0  0  0  0  0  0  0  0
    3.0790   -2.3775    0.0000 C   0  0  0  0  0  0  0  0  0  0  0  0
    3.0790   -1.5525    0.0000 C   0  0  0  0  0  0  0  0  0  0  0  0
    5.1661   -1.9650    0.0000 C   0  0  0  0  0  0  0  0  0  0  0  0
    2.3645   -2.7900    0.0000 C   0  0  0  0  0  0  0  0  0  0  0  0
    2.3645   -1.1400    0.0000 C   0  0  0  0  0  0  0  0  0  0  0  0
    1.6500   -2.3775    0.0000 C   0  0  0  0  0  0  0  0  0  0  0  0
    1.6500   -1.5525    0.0000 C   0  0  0  0  0  0  0  0  0  0  0  0
    4.9232   -0.3468    0.0000 C   0  0  0  0  0  0  0  0  0  0  0  0
    5.1795    0.4374    0.0000 C   0  0  0  0  0  0  0  0  0  0  0  0
    5.9868    0.6075    0.0000 C   0  0  0  0  0  0  0  0  0  0  0  0
    6.2431    1.3918    0.0000 C   0  0  0  0  0  0  0  0  0  0  0  0
    4.6285    1.0515    0.0000 C   0  0  0  0  0  0  0  0  0  0  0  0
    5.6921    2.0058    0.0000 C   0  0  0  0  0  0  0  0  0  0  0  0
    4.8848    1.8356    0.0000 C   0  0  0  0  0  0  0  0  0  0  0  0
  1 23  1  0
  2  4  2  0
  2  5  2  0
  2  8  1  0
  2 21  1  0
  3 18  2  0
  6  7  1  0
  6  9  1  0
  6 12  1  0
  7 18  1  0
  9 10  1  0
  9 13  1  0
 10 11  1  0
 11 12  2  0
 11 14  1  0
 12 15  1  0
 14 16  2  0
 15 17  2  0
 16 17  1  0
 18 19  1  0
 19 20  2  0
 19 22  1  0
 20 21  1  0
 21 23  2  0
 22 24  2  0
 23 24  1  0
M  END
$$$$
