546
     RDKit          2D

 25 28  0  0  0  0  0  0  0  0999 V2000
    1.6500    0.4541    0.0000 Cl  0  0  0  0  0  0  0  0  0  0  0  0
    4.8159   -0.6407    0.0000 N   0  0  0  0  0  0  0  0  0  0  0  0
    4.5298   -2.8254    0.0000 N   0  0  0  0  0  0  0  0  0  0  0  0
    5.2284    1.1666    0.0000 N   0  0  0  0  0  0  0  0  0  0  0  0
    5.7352   -1.5988    0.0000 N   0  0  0  0  0  0  0  0  0  0  0  0
    6.1244   -0.8770    0.0000 N   0  0  0  0  0  0  0  0  0  0  0  0
    4.0726   -0.2827    0.0000 C   0  0  0  0  0  0  0  0  0  0  0  0
    4.9281   -1.4531    0.0000 C   0  0  0  0  0  0  0  0  0  0  0  0
    5.5592   -0.2827    0.0000 C   0  0  0  0  0  0  0  0  0  0  0  0
    3.8890    0.5217    0.0000 C   0  0  0  0  0  0  0  0  0  0  0  0
    4.3328   -2.0242    0.0000 C   0  0  0  0  0  0  0  0  0  0  0  0
    5.7428    0.5217    0.0000 C   0  0  0  0  0  0  0  0  0  0  0  0
    4.4034    1.1666    0.0000 C   0  0  0  0  0  0  0  0  0  0  0  0
    3.4517   -0.8769    0.0000 C   0  0  0  0  0  0  0  0  0  0  0  0
    3.0718    0.7875    0.0000 C   0  0  0  0  0  0  0  0  0  0  0  0
    4.0454    1.9100    0.0000 C   0  0  0  0  0  0  0  0  0  0  0  0
    2.6286   -0.6299    0.0000 C   0  0  0  0  0  0  0  0  0  0  0  0
    2.4374    0.2079    0.0000 C   0  0  0  0  0  0  0  0  0  0  0  0
    3.9344   -3.3965    0.0000 C   0  0  0  0  0  0  0  0  0  0  0  0
    5.3220   -3.0553    0.0000 C   0  0  0  0  0  0  0  0  0  0  0  0
    3.2227    1.9716    0.0000 C   0  0  0  0  0  0  0  0  0  0  0  0
    4.5102    2.5916    0.0000 C   0  0  0  0  0  0  0  0  0  0  0  0
    2.8648    2.7149    0.0000 C   0  0  0  0  0  0  0  0  0  0  0  0
    4.1523    3.3349    0.0000 C   0  0  0  0  0  0  0  0  0  0  0  0
    3.3296    3.3965    0.0000 C   0  0  0  0  0  0  0  0  0  0  0  0
  1 18  1  0
  2  7  1  0
  2  8  1  0
  2  9  1  0
  3 11  1  0
  3 19  1  0
  3 20  1  0
  4 12  1  0
  4 13  2  0
  5  6  1  0
  5  8  2  0
  6  9  2  0
  7 10  2  0
  7 14  1  0
  8 11  1  0
  9 12  1  0
 10 13  1  0
 10 15  1  0
 13 16  1  0
 14 17  2  0
 15 18  2  0
 16 21  2  0
 16 22  1  0
 17 18  1  0
 21 23  1  0
 22 24  2  0
 23 25  2  0
 24 25  1  0
M  END
$$$$
