264
     RDKit          2D

 19 19  0  0  1  0  0  0  0  0999 V2000
    3.0791    0.6188    0.0000 O   0  0  0  0  0  0  0  0  0  0  0  0
    3.0791    2.2688    0.0000 O   0  0  0  0  0  0  0  0  0  0  0  0
    2.3645   -3.9188    0.0000 O   0  0  0  0  0  0  0  0  0  0  0  0
    4.5080    3.0938    0.0000 N   0  0  0  0  0  0  0  0  0  0  0  0
    3.7935    1.8563    0.0000 C   0  0  0  0  0  0  0  0  0  0  0  0
    4.5080    2.2688    0.0000 C   0  0  0  0  0  0  0  0  0  0  0  0
    5.2224    3.5063    0.0000 C   0  0  0  0  0  0  0  0  0  0  0  0
    3.7935    1.0313    0.0000 C   0  0  0  0  0  0  0  0  0  0  0  0
    5.9370    3.0938    0.0000 C   0  0  0  0  0  0  0  0  0  0  0  0
    5.2224    4.3313    0.0000 C   0  0  0  0  0  0  0  0  0  0  0  0
    3.0791   -0.2063    0.0000 C   0  0  0  0  0  0  0  0  0  0  0  0
    3.0791   -1.8563    0.0000 C   0  0  0  0  0  0  0  0  0  0  0  0
    3.0791   -2.6813    0.0000 C   0  0  0  0  0  0  0  0  0  0  0  0
    2.3645   -0.6188    0.0000 C   0  0  0  0  0  0  0  0  0  0  0  0
    3.7935   -0.6188    0.0000 C   0  0  0  0  0  0  0  0  0  0  0  0
    2.3645   -1.4438    0.0000 C   0  0  0  0  0  0  0  0  0  0  0  0
    3.7935   -1.4438    0.0000 C   0  0  0  0  0  0  0  0  0  0  0  0
    2.3645   -3.0938    0.0000 C   0  0  0  0  0  0  0  0  0  0  0  0
    1.6500   -4.3313    0.0000 C   0  0  0  0  0  0  0  0  0  0  0  0
  1  8  1  0
  1 11  1  0
  2  5  1  0
  3 18  1  0
  3 19  1  0
  4  6  1  0
  4  7  1  0
  5  6  1  0
  5  8  1  0
  7  9  1  0
  7 10  1  0
 11 14  2  0
 11 15  1  0
 12 13  1  0
 12 16  2  0
 12 17  1  0
 13 18  1  0
 14 16  1  0
 15 17  2  0
M  END
$$$$
