
     RDKit          2D

 47 50  0  0  0  0  0  0  0  0999 V2000
    0.5336   -1.0159    0.0000 C   0  0  0  0  0  0  0  0  0  0  0  0
    4.0613   -1.4545    0.0000 O   0  0  0  0  0  0  0  0  0  0  0  0
   -3.0429    0.2070    0.0000 C   0  0  0  0  0  0  0  0  0  0  0  0
   -3.4571   -0.5092    0.0000 C   0  0  0  0  0  0  0  0  0  0  0  0
    3.3500   -1.0306    0.0000 C   0  0  0  0  0  0  0  0  0  0  0  0
   -4.2806   -0.5092    0.0000 C   0  0  0  0  0  0  0  0  0  0  0  0
   -0.8892   -1.8442    0.0000 C   0  0  0  0  0  0  0  0  0  0  0  0
    4.0712   -0.6261    0.0000 C   0  0  0  0  0  0  0  0  0  0  0  0
   -0.8942   -1.0208    0.0000 C   0  0  0  0  0  0  0  0  0  0  0  0
   -3.4571    0.9233    0.0000 O   0  0  0  0  0  0  0  0  0  0  0  0
   -0.1826   -0.6066    0.0000 O   0  0  0  0  0  0  0  0  0  0  0  0
   -4.6996    0.2070    0.0000 C   0  0  0  0  0  0  0  0  0  0  0  0
   -0.1729   -2.2536    0.0000 C   0  0  0  0  0  0  0  0  0  0  0  0
    0.5383   -1.8345    0.0000 C   0  0  0  0  0  0  0  0  0  0  0  0
   -4.2806    0.9233    0.0000 C   0  0  0  0  0  0  0  0  0  0  0  0
   -1.6055   -2.2585    0.0000 C   0  0  0  0  0  0  0  0  0  0  0  0
    1.2450   -0.5969    0.0000 C   0  0  0  0  0  0  0  0  0  0  0  0
    4.0808    0.1973    0.0000 C   0  0  0  0  0  0  0  0  0  0  0  0
    4.8068    1.4252    0.0000 C   0  0  0  0  0  0  0  0  0  0  0  0
    2.6726   -0.5920    0.0000 C   0  0  0  0  0  0  0  0  0  0  0  0
   -2.3314    0.6310    0.0000 O   0  0  0  0  0  0  0  0  0  0  0  0
   -1.6103   -0.6115    0.0000 C   0  0  0  0  0  0  0  0  0  0  0  0
    4.0955    1.8442    0.0000 O   0  0  0  0  0  0  0  0  0  0  0  0
    4.8020    0.6017    0.0000 C   0  0  0  0  0  0  0  0  0  0  0  0
   -1.6103    0.2119    0.0000 C   0  0  0  0  0  0  0  0  0  0  0  0
    1.9613   -1.0062    0.0000 C   0  0  0  0  0  0  0  0  0  0  0  0
   -1.6055   -3.0868    0.0000 O   0  0  0  0  0  0  0  0  0  0  0  0
    5.5280    1.8345    0.0000 O   0  0  0  0  0  0  0  0  0  0  0  0
   -4.6948   -1.2255    0.0000 N   0  0  0  0  0  0  0  0  0  0  0  0
    0.5336    3.0868    0.0000 C   0  0  0  0  0  0  0  0  0  0  0  0
   -0.1826    2.6774    0.0000 C   0  0  0  0  0  0  0  0  0  0  0  0
   -0.1826    1.8541    0.0000 C   0  0  0  0  0  0  0  0  0  0  0  0
    1.2450    2.6774    0.0000 C   0  0  0  0  0  0  0  0  0  0  0  0
   -0.8989    1.4447    0.0000 C   0  0  0  0  0  0  0  0  0  0  0  0
    1.9613    3.0868    0.0000 C   0  0  0  0  0  0  0  0  0  0  0  0
   -0.8942    0.6212    0.0000 C   0  0  0  0  0  0  0  0  0  0  0  0
    0.5383   -0.1876    0.0000 O   0  0  0  0  0  0  0  0  0  0  0  0
   -3.0380   -1.2255    0.0000 O   0  0  0  0  0  0  0  0  0  0  0  0
    2.6726    2.6726    0.0000 C   0  0  0  0  0  0  0  0  0  0  0  0
   -5.5280    0.2070    0.0000 O   0  0  0  0  0  0  0  0  0  0  0  0
   -0.1729   -3.0820    0.0000 O   0  0  0  0  0  0  0  0  0  0  0  0
   -2.3266   -1.8491    0.0000 O   0  0  0  0  0  0  0  0  0  0  0  0
    4.1004    2.6677    0.0000 C   0  0  0  0  0  0  0  0  0  0  0  0
    1.9613   -1.8345    0.0000 O   0  0  0  0  0  0  0  0  0  0  0  0
   -4.6948    1.6445    0.0000 C   0  0  0  0  0  0  0  0  0  0  0  0
    3.3889    3.0820    0.0000 C   0  0  0  0  0  0  0  0  0  0  0  0
    4.8215    3.0770    0.0000 C   0  0  0  0  0  0  0  0  0  0  0  0
  2  5  1  0
  3 21  1  1
  4  3  1  0
  5 20  1  6
  6  4  1  0
  7 13  1  0
  8  5  1  0
  9 11  1  0
 10  3  1  0
 11  1  1  0
 12 15  1  0
 13 14  1  0
 14  1  1  0
 15 10  1  0
  7 16  1  1
 17  1  1  0
  8 18  1  1
 19 24  1  0
 20 26  1  0
 25 21  1  1
  9 22  1  6
 23 19  1  0
 24 18  2  0
 25 22  1  0
 26 17  1  0
 27 16  2  0
 28 19  2  0
  6 29  1  1
 30 31  1  0
 31 32  2  0
 32 34  1  0
 33 30  2  0
 34 36  2  0
 35 33  1  0
 36 25  1  0
  1 37  1  1
  4 38  1  1
 39 35  2  0
 12 40  1  6
 13 41  1  6
 42 16  1  0
 43 23  1  0
 26 44  1  6
 15 45  1  1
 46 43  1  0
 43 47  1  1
  7  9  1  0
  2  8  1  0
 12  6  1  0
 39 46  1  0
M  END
$$$$
