
     RDKit          2D

 19 20  0  0  0  0  0  0  0  0999 V2000
   14.3451   -9.7527    0.0000 C   0  0  0  0  0  0  0  0  0  0  0  0
   13.6299  -10.1707    0.0000 C   0  0  0  0  0  0  0  0  0  0  0  0
   15.0637  -10.1707    0.0000 C   0  0  0  0  0  0  0  0  0  0  0  0
   14.3485   -8.9270    0.0000 O   0  0  0  0  0  0  0  0  0  0  0  0
   13.6299  -10.9931    0.0000 C   0  0  0  0  0  0  0  0  0  0  0  0
   12.9147   -9.7527    0.0000 C   0  0  0  0  0  0  0  0  0  0  0  0
   15.0604  -10.9931    0.0000 C   0  0  0  0  0  0  0  0  0  0  0  0
   15.7756   -9.7527    0.0000 C   0  0  0  0  0  0  0  0  0  0  0  0
   15.0637   -8.5124    0.0000 C   0  0  0  0  0  0  0  0  0  0  0  0
   12.9147  -11.4043    0.0000 C   0  0  0  0  0  0  0  0  0  0  0  0
   12.1995  -10.1707    0.0000 C   0  0  0  0  0  0  0  0  0  0  0  0
   15.7756  -11.4043    0.0000 C   0  0  0  0  0  0  0  0  0  0  0  0
   16.4907  -10.1707    0.0000 C   0  0  0  0  0  0  0  0  0  0  0  0
   12.1995  -10.9931    0.0000 C   0  0  0  0  0  0  0  0  0  0  0  0
   16.4872  -10.9931    0.0000 C   0  0  0  0  0  0  0  0  0  0  0  0
   15.7742   -8.9218    0.0000 C   0  0  0  0  0  0  0  0  0  0  0  0
   16.4713   -8.5185    0.0000 N   0  0  0  0  0  0  0  0  0  0  0  0
   17.1779   -8.9258    0.0000 C   0  0  0  0  0  0  0  0  0  0  0  0
   16.4707   -7.6916    0.0000 C   0  0  0  0  0  0  0  0  0  0  0  0
  1  2  1  0
  1  3  1  0
  1  4  1  0
  2  5  2  0
  2  6  1  0
  3  7  2  0
  3  8  1  0
  4  9  1  0
  5 10  1  0
  6 11  2  0
  7 12  1  0
  8 13  2  0
 10 14  2  0
 12 15  2  0
 11 14  1  0
 13 15  1  0
  9 16  1  0
 16 17  1  0
 17 18  1  0
 17 19  1  0
M  CHG  1  17   1
M  END
$$$$
