820
     RDKit          2D

 29 34  0  0  1  0  0  0  0  0999 V2000
    7.2908    0.5262    0.0000 O   0  0  0  0  0  0  0  0  0  0  0  0
    4.3835    2.2047    0.0000 O   0  0  0  0  0  0  0  0  0  0  0  0
    2.7999    2.9805    0.0000 O   0  0  0  0  0  0  0  0  0  0  0  0
    1.6500    2.3166    0.0000 O   0  0  0  0  0  0  0  0  0  0  0  0
    5.1159    0.9412    0.0000 N   0  0  0  0  0  0  0  0  0  0  0  0
    3.7934   -0.8466    0.0000 N   0  0  0  0  0  0  0  0  0  0  0  0
    6.5878    1.8063    0.0000 N   0  0  0  0  0  0  0  0  0  0  0  0
    5.8304    0.5287    0.0000 C   0  0  0  0  0  0  0  0  0  0  0  0
    4.4015    0.5287    0.0000 C   0  0  0  0  0  0  0  0  0  0  0  0
    5.8304   -0.2963    0.0000 C   0  0  0  0  0  0  0  0  0  0  0  0
    4.4015   -0.2963    0.0000 C   0  0  0  0  0  0  0  0  0  0  0  0
    5.1159   -0.7088    0.0000 C   0  0  0  0  0  0  0  0  0  0  0  0
    6.5811    0.9469    0.0000 C   0  0  0  0  0  0  0  0  0  0  0  0
    4.9433   -1.5105    0.0000 C   0  0  0  0  0  0  0  0  0  0  0  0
    5.1027    1.8005    0.0000 C   0  0  0  0  0  0  0  0  0  0  0  0
    3.6870    0.9412    0.0000 C   0  0  0  0  0  0  0  0  0  0  0  0
    5.8436    2.2359    0.0000 C   0  0  0  0  0  0  0  0  0  0  0  0
    4.1276   -1.5955    0.0000 C   0  0  0  0  0  0  0  0  0  0  0  0
    5.4555   -2.1943    0.0000 C   0  0  0  0  0  0  0  0  0  0  0  0
    3.6870    1.7662    0.0000 C   0  0  0  0  0  0  0  0  0  0  0  0
    2.9725    0.5287    0.0000 C   0  0  0  0  0  0  0  0  0  0  0  0
    3.7675   -2.3701    0.0000 C   0  0  0  0  0  0  0  0  0  0  0  0
    7.3038    2.2160    0.0000 C   0  0  0  0  0  0  0  0  0  0  0  0
    2.9725    2.1787    0.0000 C   0  0  0  0  0  0  0  0  0  0  0  0
    5.1134   -2.9770    0.0000 C   0  0  0  0  0  0  0  0  0  0  0  0
    2.2580    0.9412    0.0000 C   0  0  0  0  0  0  0  0  0  0  0  0
    4.2637   -3.0655    0.0000 C   0  0  0  0  0  0  0  0  0  0  0  0
    2.2580    1.7662    0.0000 C   0  0  0  0  0  0  0  0  0  0  0  0
    1.9842    3.0655    0.0000 C   0  0  0  0  0  0  0  0  0  0  0  0
  1 13  2  0
  2 15  2  0
  3 24  1  0
  3 29  1  0
  4 28  1  0
  4 29  1  0
  5  8  1  0
  5  9  1  0
  5 15  1  0
  6 11  1  0
  6 18  1  0
  7 13  1  0
  7 17  1  0
  7 23  1  0
  8 10  1  1
  8 13  1  0
  9 11  1  0
  9 16  1  1
 10 12  1  0
 11 12  2  0
 12 14  1  0
 14 18  2  0
 14 19  1  0
 15 17  1  0
 16 20  1  0
 16 21  2  0
 18 22  1  0
 19 25  2  0
 20 24  2  0
 21 26  1  0
 22 27  2  0
 24 28  1  0
 25 27  1  0
 26 28  2  0
M  END
$$$$
