
     RDKit          2D

 46 53  0  0  1  0  0  0  0  0999 V2000
    8.5737   -4.9500    0.0000 C   0  0  0  0  0  0  0  0  0  0  0  0
    5.7158   -4.9500    0.0000 C   0  0  0  0  0  0  0  0  0  0  0  0
    1.5522    2.7525    0.0000 C   0  0  0  0  0  0  0  0  0  0  0  0
    2.1042    2.1394    0.0000 C   0  0  0  0  0  0  0  0  0  0  0  0
    1.9647    3.4670    0.0000 C   0  0  0  0  0  0  0  0  0  0  0  0
    7.8592   -2.8875    0.0000 C   0  0  0  0  0  0  0  0  0  0  0  0
    6.4302   -2.8875    0.0000 C   0  0  0  0  0  0  0  0  0  0  0  0
    8.5737   -1.6500    0.0000 C   0  0  0  0  0  0  0  0  0  0  0  0
    8.5737    0.0000    0.0000 C   0  0  0  0  0  0  0  0  0  0  0  0
    5.6456   -0.1576    0.0000 C   0  0  0  0  0  0  0  0  0  0  0  0
    4.2868    0.8250    0.0000 C   0  0  0  0  0  0  0  0  0  0  0  0
   10.5577   -0.8250    0.0000 C   0  0  0  0  0  0  0  0  0  0  0  0
    7.1447   -2.4750    0.0000 C   0  0  0  0  0  0  0  0  0  0  0  0
    7.8592   -1.2375    0.0000 C   0  0  0  0  0  0  0  0  0  0  0  0
    7.8592   -0.4125    0.0000 C   0  0  0  0  0  0  0  0  0  0  0  0
    6.4302   -0.4125    0.0000 C   0  0  0  0  0  0  0  0  0  0  0  0
    9.2881   -1.2375    0.0000 C   0  0  0  0  0  0  0  0  0  0  0  0
    9.2881   -0.4125    0.0000 C   0  0  0  0  0  0  0  0  0  0  0  0
    7.8592   -3.7125    0.0000 C   0  0  0  0  0  0  0  0  0  0  0  0
    6.4302   -3.7125    0.0000 C   0  0  0  0  0  0  0  0  0  0  0  0
    5.0013    1.2375    0.0000 C   0  0  0  0  0  0  0  0  0  0  0  0
    2.8579    2.4750    0.0000 C   0  0  0  0  0  0  0  0  0  0  0  0
    7.1447   -1.6500    0.0000 C   0  0  0  0  0  0  0  0  0  0  0  0
    6.4302   -1.2375    0.0000 C   0  0  0  0  0  0  0  0  0  0  0  0
    7.1447   -4.1250    0.0000 C   0  0  0  0  0  0  0  0  0  0  0  0
    5.7158    2.4750    0.0000 C   0  0  0  0  0  0  0  0  0  0  0  0
    6.4302    2.0625    0.0000 C   0  0  0  0  0  0  0  0  0  0  0  0
    7.1447    0.0000    0.0000 C   0  0  0  0  0  0  0  0  0  0  0  0
    5.0013    2.0625    0.0000 C   0  0  0  0  0  0  0  0  0  0  0  0
    5.6456   -1.4924    0.0000 C   0  0  0  0  0  0  0  0  0  0  0  0
    3.5724    2.0625    0.0000 C   0  0  0  0  0  0  0  0  0  0  0  0
    6.4302    1.2375    0.0000 C   0  0  0  0  0  0  0  0  0  0  0  0
    7.1447   -4.9500    0.0000 O   0  0  0  0  0  0  0  0  0  0  0  0
    5.7158    3.3000    0.0000 O   0  0  0  0  0  0  0  0  0  0  0  0
    7.1447    2.4750    0.0000 O   0  0  0  0  0  0  0  0  0  0  0  0
    5.3907   -2.2771    0.0000 O   0  0  0  0  0  0  0  0  0  0  0  0
    8.5737   -4.1250    0.0000 O   0  0  0  0  0  0  0  0  0  0  0  0
    5.7158   -4.1250    0.0000 O   0  0  0  0  0  0  0  0  0  0  0  0
    5.1607   -0.8250    0.0000 O   0  0  0  0  0  0  0  0  0  0  0  0
    3.5724    1.2375    0.0000 O   0  0  0  0  0  0  0  0  0  0  0  0
   10.0727   -1.4924    0.0000 O   0  0  0  0  0  0  0  0  0  0  0  0
   10.0727   -0.1576    0.0000 O   0  0  0  0  0  0  0  0  0  0  0  0
    5.7158    0.8250    0.0000 O   0  0  0  0  0  0  0  0  0  0  0  0
    7.1447    0.8250    0.0000 O   0  0  0  0  0  0  0  0  0  0  0  0
    4.2868    2.4750    0.0000 O   0  0  0  0  0  0  0  0  0  0  0  0
    2.7716    3.2955    0.0000 S   0  0  0  0  0  0  0  0  0  0  0  0
  4  3  1  0
  5  3  2  0
 13  6  2  0
 13  7  1  0
 14  8  2  0
 15  9  2  0
 15 14  1  0
 16 10  1  6
 17  8  1  0
 18  9  1  0
 18 17  2  0
 19  6  1  0
 20  7  2  0
 21 11  1  6
 22  4  2  0
 23 13  1  1
 23 14  1  0
 24 16  1  0
 24 23  1  0
 25 19  2  0
 25 20  1  0
 27 26  1  0
 28 15  1  0
 28 16  1  0
 29 21  1  0
 29 26  1  0
 24 30  1  1
 31 22  1  1
 32 27  1  0
 33 25  1  0
 26 34  1  6
 27 35  1  1
 36 30  2  0
 37  1  1  0
 37 19  1  0
 38  2  1  0
 38 20  1  0
 39 10  1  0
 39 30  1  0
 40 11  1  0
 40 31  1  0
 41 12  1  0
 41 17  1  0
 42 12  1  0
 42 18  1  0
 43 21  1  0
 43 32  1  0
 28 44  1  6
 32 44  1  6
 29 45  1  1
 45 31  1  0
 46  5  1  0
 46 22  1  0
M  END
$$$$
