712
     RDKit          2D

 18 19  0  0  1  0  0  0  0  0999 V2000
    1.6500    0.7466    0.0000 F   0  0  0  0  0  0  0  0  0  0  0  0
    3.7934   -2.9659    0.0000 O   0  0  0  0  0  0  0  0  0  0  0  0
    4.5079   -1.7284    0.0000 O   0  0  0  0  0  0  0  0  0  0  0  0
    3.0790   -1.7284    0.0000 C   0  0  0  0  0  0  0  0  0  0  0  0
    3.0790   -0.9034    0.0000 C   0  0  0  0  0  0  0  0  0  0  0  0
    3.0790    0.7466    0.0000 C   0  0  0  0  0  0  0  0  0  0  0  0
    2.3644   -0.4909    0.0000 C   0  0  0  0  0  0  0  0  0  0  0  0
    3.7934   -0.4909    0.0000 C   0  0  0  0  0  0  0  0  0  0  0  0
    2.3644    0.3341    0.0000 C   0  0  0  0  0  0  0  0  0  0  0  0
    3.7934    0.3341    0.0000 C   0  0  0  0  0  0  0  0  0  0  0  0
    2.3644   -2.1409    0.0000 C   0  0  0  0  0  0  0  0  0  0  0  0
    3.0790    1.5716    0.0000 C   0  0  0  0  0  0  0  0  0  0  0  0
    3.7934   -2.1409    0.0000 C   0  0  0  0  0  0  0  0  0  0  0  0
    2.3644    1.9841    0.0000 C   0  0  0  0  0  0  0  0  0  0  0  0
    3.7934    1.9841    0.0000 C   0  0  0  0  0  0  0  0  0  0  0  0
    2.3644    2.8091    0.0000 C   0  0  0  0  0  0  0  0  0  0  0  0
    3.7934    2.8091    0.0000 C   0  0  0  0  0  0  0  0  0  0  0  0
    3.0790    3.2216    0.0000 C   0  0  0  0  0  0  0  0  0  0  0  0
  1  9  1  0
  2 13  1  0
  3 13  2  0
  4  5  1  0
  4 11  1  0
  4 13  1  0
  5  7  2  0
  5  8  1  0
  6  9  2  0
  6 10  1  0
  6 12  1  0
  7  9  1  0
  8 10  2  0
 12 14  2  0
 12 15  1  0
 14 16  1  0
 15 17  2  0
 16 18  2  0
 17 18  1  0
M  END
$$$$
