77993
     RDKit          2D

 27 30  0  0  1  0  0  0  0  0999 V2000
    3.7935    0.1625    0.0000 S   0  0  0  0  0  0  0  0  0  0  0  0
    3.3810   -0.5519    0.0000 O   0  0  0  0  0  0  0  0  0  0  0  0
    4.2060    0.8770    0.0000 O   0  0  0  0  0  0  0  0  0  0  0  0
    9.8223    0.4027    0.0000 N   0  0  0  0  0  0  0  0  0  0  0  0
    8.1466   -1.3264    0.0000 N   0  0  0  0  0  0  0  0  0  0  0  0
    9.2102    0.9558    0.0000 C   0  0  0  0  0  0  0  0  0  0  0  0
    9.5470    1.7089    0.0000 C   0  0  0  0  0  0  0  0  0  0  0  0
   10.3673    1.6212    0.0000 C   0  0  0  0  0  0  0  0  0  0  0  0
   10.5375    0.8140    0.0000 C   0  0  0  0  0  0  0  0  0  0  0  0
    8.4029    0.7857    0.0000 C   0  0  0  0  0  0  0  0  0  0  0  0
    8.1466    0.0015    0.0000 C   0  0  0  0  0  0  0  0  0  0  0  0
    9.7346   -0.4177    0.0000 C   0  0  0  0  0  0  0  0  0  0  0  0
    7.3659   -0.2500    0.0000 C   0  0  0  0  0  0  0  0  0  0  0  0
    8.6280   -0.6625    0.0000 C   0  0  0  0  0  0  0  0  0  0  0  0
    7.3659   -1.0750    0.0000 C   0  0  0  0  0  0  0  0  0  0  0  0
    6.6515    0.1625    0.0000 C   0  0  0  0  0  0  0  0  0  0  0  0
    5.9370   -0.2500    0.0000 C   0  0  0  0  0  0  0  0  0  0  0  0
    6.6515   -1.4875    0.0000 C   0  0  0  0  0  0  0  0  0  0  0  0
    5.2224    0.1625    0.0000 C   0  0  0  0  0  0  0  0  0  0  0  0
    5.9370   -1.0750    0.0000 C   0  0  0  0  0  0  0  0  0  0  0  0
    4.5080   -0.2500    0.0000 C   0  0  0  0  0  0  0  0  0  0  0  0
    3.0790    0.5750    0.0000 C   0  0  0  0  0  0  0  0  0  0  0  0
    2.3645    0.1625    0.0000 C   0  0  0  0  0  0  0  0  0  0  0  0
    3.0790    1.4001    0.0000 C   0  0  0  0  0  0  0  0  0  0  0  0
    1.6500    0.5750    0.0000 C   0  0  0  0  0  0  0  0  0  0  0  0
    2.3645    1.8126    0.0000 C   0  0  0  0  0  0  0  0  0  0  0  0
    1.6500    1.4001    0.0000 C   0  0  0  0  0  0  0  0  0  0  0  0
  1  2  2  0
  1  3  2  0
  1 21  1  0
  1 22  1  0
  4  6  1  0
  4  9  1  0
  4 12  1  0
  5 14  1  0
  5 15  1  0
  6  7  1  0
  6 10  1  1
  7  8  1  0
  8  9  1  0
 10 11  1  0
 11 13  1  0
 11 14  2  0
 13 15  2  0
 13 16  1  0
 15 18  1  0
 16 17  2  0
 17 19  1  0
 17 20  1  0
 18 20  2  0
 19 21  1  0
 22 23  2  0
 22 24  1  0
 23 25  1  0
 24 26  2  0
 25 27  2  0
 26 27  1  0
M  END
$$$$
