38521
     RDKit          2D

 15 16  0  0  1  0  0  0  0  0999 V2000
    3.7850   -0.0593    0.0000 O   0  0  0  0  0  0  0  0  0  0  0  0
    3.7850   -1.3942    0.0000 O   0  0  0  0  0  0  0  0  0  0  0  0
    5.9908   -0.1648    0.0000 N   0  0  0  0  0  0  0  0  0  0  0  0
    7.4120   -0.0155    0.0000 N   0  0  0  0  0  0  0  0  0  0  0  0
    6.5720    1.1406    0.0000 N   0  0  0  0  0  0  0  0  0  0  0  0
    3.3001   -0.7268    0.0000 C   0  0  0  0  0  0  0  0  0  0  0  0
    2.8876   -1.4412    0.0000 C   0  0  0  0  0  0  0  0  0  0  0  0
    2.8876   -0.0123    0.0000 C   0  0  0  0  0  0  0  0  0  0  0  0
    2.0625   -0.0123    0.0000 C   0  0  0  0  0  0  0  0  0  0  0  0
    2.0625   -1.4412    0.0000 C   0  0  0  0  0  0  0  0  0  0  0  0
    1.6500   -0.7268    0.0000 C   0  0  0  0  0  0  0  0  0  0  0  0
    4.5696   -0.3142    0.0000 C   0  0  0  0  0  0  0  0  0  0  0  0
    4.5696   -1.1393    0.0000 C   0  0  0  0  0  0  0  0  0  0  0  0
    5.2371    0.1707    0.0000 C   0  0  0  0  0  0  0  0  0  0  0  0
    6.6582    0.3201    0.0000 C   0  0  0  0  0  0  0  0  0  0  0  0
  1  6  1  0
  1 12  1  0
  2  6  1  0
  2 13  1  0
  3 14  1  0
  3 15  2  0
  4 15  1  0
  5 15  1  0
  6  7  1  0
  6  8  1  0
  7 10  1  0
  8  9  1  0
  9 11  1  0
 10 11  1  0
 12 13  1  0
 12 14  1  0
M  END
$$$$
