
     RDKit          2D

 21 23  0  0  0  0  0  0  0  0999 V2000
    1.5326   -0.3143    0.0000 N   0  0  0  0  0  0  0  0  0  0  0  0
    0.0998    0.0219    0.0000 C   0  0  0  0  0  0  0  0  0  0  0  0
    0.7431   -0.4897    0.0000 C   0  0  0  0  0  0  0  0  0  0  0  0
    0.7431    1.3669    0.0000 N   0  0  0  0  0  0  0  0  0  0  0  0
    1.8982    0.4312    0.0000 C   0  0  0  0  0  0  0  0  0  0  0  0
    0.0998    0.8553    0.0000 C   0  0  0  0  0  0  0  0  0  0  0  0
    1.5326    1.1916    0.0000 C   0  0  0  0  0  0  0  0  0  0  0  0
    2.0493   -0.9576    0.0000 O   0  0  0  0  0  0  0  0  0  0  0  0
   -0.6165   -0.3874    0.0000 C   0  0  0  0  0  0  0  0  0  0  0  0
    0.3095   -1.1916    0.0000 C   0  0  0  0  0  0  0  0  0  0  0  0
   -0.6165    1.2646    0.0000 C   0  0  0  0  0  0  0  0  0  0  0  0
    2.0493    1.8641    0.0000 N   0  0  0  0  0  0  0  0  0  0  0  0
   -1.3329    0.0073    0.0000 C   0  0  0  0  0  0  0  0  0  0  0  0
   -1.3329    0.8698    0.0000 C   0  0  0  0  0  0  0  0  0  0  0  0
   -2.0493   -0.4312    0.0000 Cl  0  0  0  0  0  0  0  0  0  0  0  0
   -0.5238   -1.1769    0.0000 C   0  0  0  0  0  0  0  0  0  0  0  0
    0.7042   -1.9080    0.0000 C   0  0  0  0  0  0  0  0  0  0  0  0
    1.7276    2.6244    0.0000 C   0  0  0  0  0  0  0  0  0  0  0  0
   -0.9527   -1.8933    0.0000 C   0  0  0  0  0  0  0  0  0  0  0  0
    0.2753   -2.6244    0.0000 C   0  0  0  0  0  0  0  0  0  0  0  0
   -0.5433   -2.6244    0.0000 C   0  0  0  0  0  0  0  0  0  0  0  0
  2  3  1  0
  3  1  2  0
  4  7  2  0
  5  1  1  0
  6  2  2  0
  7  5  1  0
  8  1  1  0
  9  2  1  0
 10  3  1  0
 11  6  1  0
 12  7  1  0
 13  9  2  0
 14 13  1  0
 15 13  1  0
 16 10  2  0
 17 10  1  0
 18 12  1  0
 19 16  1  0
 20 17  2  0
 21 19  2  0
  6  4  1  0
 20 21  1  0
 11 14  2  0
M  CHG  2   1   1   8  -1
M  END
$$$$
