439
     RDKit          2D

 33 34  0  0  1  0  0  0  0  0999 V2000
    8.5234    2.9833    0.0000 F   0  0  0  0  0  0  0  0  0  0  0  0
   10.6668   -0.7293    0.0000 O   0  0  0  0  0  0  0  0  0  0  0  0
    5.6655    0.5082    0.0000 O   0  0  0  0  0  0  0  0  0  0  0  0
    4.2365    0.5082    0.0000 O   0  0  0  0  0  0  0  0  0  0  0  0
    2.0930   -0.7293    0.0000 O   0  0  0  0  0  0  0  0  0  0  0  0
    2.8075    0.5082    0.0000 O   0  0  0  0  0  0  0  0  0  0  0  0
    8.5234   -1.9668    0.0000 N   0  0  0  0  0  0  0  0  0  0  0  0
    9.2379   -1.5543    0.0000 C   0  0  0  0  0  0  0  0  0  0  0  0
    7.8089   -1.5543    0.0000 C   0  0  0  0  0  0  0  0  0  0  0  0
    9.2379   -0.7293    0.0000 C   0  0  0  0  0  0  0  0  0  0  0  0
    7.8089   -0.7293    0.0000 C   0  0  0  0  0  0  0  0  0  0  0  0
    8.5234   -0.3168    0.0000 C   0  0  0  0  0  0  0  0  0  0  0  0
    7.3964   -2.2688    0.0000 C   0  0  0  0  0  0  0  0  0  0  0  0
    9.9524   -1.9668    0.0000 C   0  0  0  0  0  0  0  0  0  0  0  0
    9.9524   -0.3168    0.0000 C   0  0  0  0  0  0  0  0  0  0  0  0
    8.5234    0.5082    0.0000 C   0  0  0  0  0  0  0  0  0  0  0  0
    7.0944   -0.3168    0.0000 C   0  0  0  0  0  0  0  0  0  0  0  0
    5.6655   -0.3168    0.0000 C   0  0  0  0  0  0  0  0  0  0  0  0
    6.5714   -2.2687    0.0000 C   0  0  0  0  0  0  0  0  0  0  0  0
    7.8090   -2.9833    0.0000 C   0  0  0  0  0  0  0  0  0  0  0  0
   10.6668   -1.5543    0.0000 C   0  0  0  0  0  0  0  0  0  0  0  0
    9.9524   -2.7919    0.0000 C   0  0  0  0  0  0  0  0  0  0  0  0
    4.9509   -0.7293    0.0000 C   0  0  0  0  0  0  0  0  0  0  0  0
    6.3799   -0.7293    0.0000 C   0  0  0  0  0  0  0  0  0  0  0  0
    4.2365   -0.3168    0.0000 C   0  0  0  0  0  0  0  0  0  0  0  0
    7.8089    0.9207    0.0000 C   0  0  0  0  0  0  0  0  0  0  0  0
    9.2379    0.9207    0.0000 C   0  0  0  0  0  0  0  0  0  0  0  0
    3.5220   -0.7293    0.0000 C   0  0  0  0  0  0  0  0  0  0  0  0
    7.8089    1.7457    0.0000 C   0  0  0  0  0  0  0  0  0  0  0  0
    9.2379    1.7457    0.0000 C   0  0  0  0  0  0  0  0  0  0  0  0
    8.5234    2.1582    0.0000 C   0  0  0  0  0  0  0  0  0  0  0  0
   11.3814   -0.3168    0.0000 C   0  0  0  0  0  0  0  0  0  0  0  0
    2.8075   -0.3168    0.0000 C   0  0  0  0  0  0  0  0  0  0  0  0
  1 31  1  0
  2 15  1  0
  2 32  1  0
 18  3  1  6
 25  4  1  6
  5 33  1  0
  6 33  2  0
  7  8  2  0
  7  9  1  0
  8 10  1  0
  8 14  1  0
  9 11  2  0
  9 13  1  0
 10 12  2  0
 10 15  1  0
 11 12  1  0
 11 17  1  0
 12 16  1  0
 13 19  1  0
 13 20  1  0
 14 21  1  0
 14 22  1  0
 16 26  2  0
 16 27  1  0
 17 24  2  0
 18 23  1  0
 18 24  1  0
 23 25  1  0
 25 28  1  0
 26 29  1  0
 27 30  2  0
 28 33  1  0
 29 31  2  0
 30 31  1  0
M  END
$$$$
