919
     RDKit          2D

 23 25  0  0  1  0  0  0  0  0999 V2000
    5.0678    0.7104    0.0000 O   0  0  0  0  0  0  0  0  0  0  0  0
    5.0678   -0.8737    0.0000 O   0  0  0  0  0  0  0  0  0  0  0  0
    6.4618   -0.9013    0.0000 O   0  0  0  0  0  0  0  0  0  0  0  0
    3.6830   -1.6932    0.0000 O   0  0  0  0  0  0  0  0  0  0  0  0
    2.2716    0.7295    0.0000 O   0  0  0  0  0  0  0  0  0  0  0  0
    5.7538    1.1065    0.0000 O   0  0  0  0  0  0  0  0  0  0  0  0
    6.4527    1.5299    0.0000 O   0  0  0  0  0  0  0  0  0  0  0  0
    3.6830    1.5299    0.0000 N   0  0  0  0  0  0  0  0  0  0  0  0
    2.2716   -0.8929    0.0000 N   0  0  0  0  0  0  0  0  0  0  0  0
    4.3818    0.3143    0.0000 C   0  0  0  0  0  0  0  0  0  0  0  0
    4.3818   -0.4777    0.0000 C   0  0  0  0  0  0  0  0  0  0  0  0
    3.6737    0.7379    0.0000 C   0  0  0  0  0  0  0  0  0  0  0  0
    3.6737   -0.9013    0.0000 C   0  0  0  0  0  0  0  0  0  0  0  0
    2.9560   -0.4942    0.0000 C   0  0  0  0  0  0  0  0  0  0  0  0
    2.9560    0.3309    0.0000 C   0  0  0  0  0  0  0  0  0  0  0  0
    5.7538    0.3143    0.0000 C   0  0  0  0  0  0  0  0  0  0  0  0
    5.7538   -0.4777    0.0000 C   0  0  0  0  0  0  0  0  0  0  0  0
    6.4618    0.7379    0.0000 C   0  0  0  0  0  0  0  0  0  0  0  0
    7.1795   -0.4942    0.0000 C   0  0  0  0  0  0  0  0  0  0  0  0
    7.1795    0.3309    0.0000 C   0  0  0  0  0  0  0  0  0  0  0  0
    3.0016    1.9339    0.0000 C   0  0  0  0  0  0  0  0  0  0  0  0
    1.5841   -0.4995    0.0000 C   0  0  0  0  0  0  0  0  0  0  0  0
    7.8639   -0.8929    0.0000 C   0  0  0  0  0  0  0  0  0  0  0  0
 10  1  1  1
  1 16  1  0
 11  2  1  6
 17  2  1  1
  3 17  1  0
  3 19  1  0
 13  4  1  1
 15  5  1  6
 16  6  1  6
  7 18  2  0
 12  8  1  6
  8 21  1  0
 14  9  1  6
  9 22  1  0
 10 11  1  0
 10 12  1  0
 11 13  1  0
 12 15  1  0
 13 14  1  0
 14 15  1  0
 16 17  1  0
 16 18  1  0
 18 20  1  0
 19 20  1  0
 19 23  1  1
M  END
$$$$
