
     RDKit          2D

  4  3  0  0  0  0  0  0  0  0999 V2000
    0.4430    3.6804    0.0000 N   0  0  0  0  0  0  0  0  0  0  0  0
    1.1575    4.0929    0.0000 C   0  0  0  0  0  0  0  0  0  0  0  0
    1.8720    3.6804    0.0000 C   0  0  0  0  0  0  0  0  0  0  0  0
    2.5864    4.0929    0.0000 C   0  0  0  0  0  0  0  0  0  0  0  0
  1  2  1  0
  2  3  1  0
  3  4  2  3
M  END
$$$$
