686
     RDKit          2D

 35 36  0  0  1  0  0  0  0  0999 V2000
    4.2365    1.2375    0.0000 S   0  0  0  0  0  0  0  0  0  0  0  0
    8.5234    1.2375    0.0000 S   0  0  0  0  0  0  0  0  0  0  0  0
    9.9524   -0.4125    0.0000 S   0  0  0  0  0  0  0  0  0  0  0  0
    2.8075   -0.4125    0.0000 S   0  0  0  0  0  0  0  0  0  0  0  0
    6.3799    0.0000    0.0000 O   0  0  0  0  0  0  0  0  0  0  0  0
    7.0944   -1.2375    0.0000 O   0  0  0  0  0  0  0  0  0  0  0  0
    4.9509   -1.6500    0.0000 O   0  0  0  0  0  0  0  0  0  0  0  0
    4.9509    0.8250    0.0000 O   0  0  0  0  0  0  0  0  0  0  0  0
    7.8089    0.8250    0.0000 O   0  0  0  0  0  0  0  0  0  0  0  0
    9.2379    0.0000    0.0000 O   0  0  0  0  0  0  0  0  0  0  0  0
    3.5220    0.0000    0.0000 O   0  0  0  0  0  0  0  0  0  0  0  0
    9.2379   -1.6500    0.0000 O   0  0  0  0  0  0  0  0  0  0  0  0
    3.5220   -1.6500    0.0000 O   0  0  0  0  0  0  0  0  0  0  0  0
    3.5220    1.6500    0.0000 O   0  0  0  0  0  0  0  0  0  0  0  0
    9.2379    1.6500    0.0000 O   0  0  0  0  0  0  0  0  0  0  0  0
   10.6668   -0.8250    0.0000 O   0  0  0  0  0  0  0  0  0  0  0  0
    2.0930   -0.8250    0.0000 O   0  0  0  0  0  0  0  0  0  0  0  0
    3.8240    0.5231    0.0000 O   0  0  0  0  0  0  0  0  0  0  0  0
    4.6490    1.9520    0.0000 O   0  0  0  0  0  0  0  0  0  0  0  0
    8.9359    0.5231    0.0000 O   0  0  0  0  0  0  0  0  0  0  0  0
    8.1109    1.9520    0.0000 O   0  0  0  0  0  0  0  0  0  0  0  0
   10.3649    0.3020    0.0000 O   0  0  0  0  0  0  0  0  0  0  0  0
    9.5398   -1.1270    0.0000 O   0  0  0  0  0  0  0  0  0  0  0  0
    2.3950    0.3020    0.0000 O   0  0  0  0  0  0  0  0  0  0  0  0
    3.2200   -1.1270    0.0000 O   0  0  0  0  0  0  0  0  0  0  0  0
    5.6655   -0.4125    0.0000 C   0  0  0  0  0  0  0  0  0  0  0  0
    4.9509    0.0000    0.0000 C   0  0  0  0  0  0  0  0  0  0  0  0
    7.8089    0.0000    0.0000 C   0  0  0  0  0  0  0  0  0  0  0  0
    7.0944   -0.4125    0.0000 C   0  0  0  0  0  0  0  0  0  0  0  0
    8.5234   -0.4125    0.0000 C   0  0  0  0  0  0  0  0  0  0  0  0
    4.2365   -0.4125    0.0000 C   0  0  0  0  0  0  0  0  0  0  0  0
    8.5234   -1.2375    0.0000 C   0  0  0  0  0  0  0  0  0  0  0  0
    5.6655   -1.2375    0.0000 C   0  0  0  0  0  0  0  0  0  0  0  0
    4.2365   -1.2375    0.0000 C   0  0  0  0  0  0  0  0  0  0  0  0
    7.8089   -1.6500    0.0000 C   0  0  0  0  0  0  0  0  0  0  0  0
  1  8  1  0
  1 14  1  0
  1 18  2  0
  1 19  2  0
  2  9  1  0
  2 15  1  0
  2 20  2  0
  2 21  2  0
  3 10  1  0
  3 16  1  0
  3 22  2  0
  3 23  2  0
  4 11  1  0
  4 17  1  0
  4 24  2  0
  4 25  2  0
 26  5  1  6
 29  5  1  1
  6 29  1  0
  6 35  1  0
  7 33  1  0
  7 34  1  0
 27  8  1  1
 28  9  1  6
 30 10  1  1
 31 11  1  6
 32 12  1  6
 34 13  1  1
 26 27  1  0
 26 33  1  0
 27 31  1  0
 28 29  1  0
 28 30  1  0
 30 32  1  0
 31 34  1  0
 32 35  1  0
M  END
$$$$
