Salicylic acid
     RDKit          2D

 10 10  0  0  0  0  0  0  0  0999 V2000
   16.1680  -10.0031    0.0000 O   0  0  0  0  0  0  0  0  0  0  0  0
   14.0521   -8.8508    0.0000 O   0  0  0  0  0  0  0  0  0  0  0  0
   15.4701   -8.8471    0.0000 O   0  0  0  0  0  0  0  0  0  0  0  0
   14.7462  -10.0031    0.0000 C   0  0  0  0  0  0  0  0  0  0  0  0
   15.4627  -10.4120    0.0000 C   0  0  0  0  0  0  0  0  0  0  0  0
   14.7612   -9.2561    0.0000 C   0  0  0  0  0  0  0  0  0  0  0  0
   14.0410  -10.4120    0.0000 C   0  0  0  0  0  0  0  0  0  0  0  0
   15.4627  -11.2373    0.0000 C   0  0  0  0  0  0  0  0  0  0  0  0
   14.0410  -11.2373    0.0000 C   0  0  0  0  0  0  0  0  0  0  0  0
   14.7462  -11.6538    0.0000 C   0  0  0  0  0  0  0  0  0  0  0  0
  1  5  1  0
  2  6  2  0
  3  6  1  0
  4  5  2  0
  4  7  1  0
  5  8  1  0
  7  9  2  0
  8 10  2  0
  9 10  1  0
  4  6  1  0
M  END
$$$$
