906
     RDKit          2D

 25 27  0  0  1  0  0  0  0  0999 V2000
    6.0232   -0.3227    0.0000 S   0  0  0  0  0  0  0  0  0  0  0  0
    5.8899   -2.8656    0.0000 S   0  0  0  0  0  0  0  0  0  0  0  0
    2.3645    3.3945    0.0000 O   0  0  0  0  0  0  0  0  0  0  0  0
    1.6500    2.1569    0.0000 O   0  0  0  0  0  0  0  0  0  0  0  0
    3.7935    0.9194    0.0000 N   0  0  0  0  0  0  0  0  0  0  0  0
    3.0791    2.1569    0.0000 C   0  0  0  0  0  0  0  0  0  0  0  0
    3.0791    1.3319    0.0000 C   0  0  0  0  0  0  0  0  0  0  0  0
    3.7935    2.5694    0.0000 C   0  0  0  0  0  0  0  0  0  0  0  0
    4.5080    2.1569    0.0000 C   0  0  0  0  0  0  0  0  0  0  0  0
    4.5080    1.3319    0.0000 C   0  0  0  0  0  0  0  0  0  0  0  0
    3.7935    0.0944    0.0000 C   0  0  0  0  0  0  0  0  0  0  0  0
    4.5080   -0.3181    0.0000 C   0  0  0  0  0  0  0  0  0  0  0  0
    2.3645    2.5694    0.0000 C   0  0  0  0  0  0  0  0  0  0  0  0
    4.5080   -1.1431    0.0000 C   0  0  0  0  0  0  0  0  0  0  0  0
    5.2224   -1.5557    0.0000 C   0  0  0  0  0  0  0  0  0  0  0  0
    5.9370   -1.1431    0.0000 C   0  0  0  0  0  0  0  0  0  0  0  0
    5.2224   -2.3807    0.0000 C   0  0  0  0  0  0  0  0  0  0  0  0
    6.6906   -1.4787    0.0000 C   0  0  0  0  0  0  0  0  0  0  0  0
    4.5550   -2.8656    0.0000 C   0  0  0  0  0  0  0  0  0  0  0  0
    7.2427   -0.8656    0.0000 C   0  0  0  0  0  0  0  0  0  0  0  0
    4.8099   -3.6502    0.0000 C   0  0  0  0  0  0  0  0  0  0  0  0
    6.8622   -2.2857    0.0000 C   0  0  0  0  0  0  0  0  0  0  0  0
    3.7704   -2.6106    0.0000 C   0  0  0  0  0  0  0  0  0  0  0  0
    6.8302   -0.1511    0.0000 C   0  0  0  0  0  0  0  0  0  0  0  0
    5.6350   -3.6502    0.0000 C   0  0  0  0  0  0  0  0  0  0  0  0
  1 16  1  0
  1 24  1  0
  2 17  1  0
  2 25  1  0
  3 13  1  0
  4 13  2  0
  5  7  1  0
  5 10  1  0
  5 11  1  0
  6  7  1  0
  6  8  1  0
  6 13  1  6
  8  9  1  0
  9 10  1  0
 11 12  1  0
 12 14  1  0
 14 15  2  0
 15 16  1  0
 15 17  1  0
 16 18  2  0
 17 19  2  0
 18 20  1  0
 18 22  1  0
 19 21  1  0
 19 23  1  0
 20 24  2  0
 21 25  2  0
M  END
$$$$
