
     RDKit          2D

 25 27  0  0  0  0  0  0  0  0999 V2000
   10.8582   -5.2880    0.0000 C   0  0  0  0  0  0  0  0  0  0  0  0
   11.5256   -4.8030    0.0000 C   0  0  0  0  0  0  0  0  0  0  0  0
   11.2707   -4.0184    0.0000 C   0  0  0  0  0  0  0  0  0  0  0  0
   10.4457   -4.0184    0.0000 C   0  0  0  0  0  0  0  0  0  0  0  0
   10.1908   -4.8030    0.0000 C   0  0  0  0  0  0  0  0  0  0  0  0
    9.8937   -3.4053    0.0000 C   0  0  0  0  0  0  0  0  0  0  0  0
    9.0867   -3.5769    0.0000 C   0  0  0  0  0  0  0  0  0  0  0  0
    8.8317   -4.3615    0.0000 C   0  0  0  0  0  0  0  0  0  0  0  0
    9.3838   -4.9746    0.0000 C   0  0  0  0  0  0  0  0  0  0  0  0
   10.8582   -6.1130    0.0000 C   0  0  0  0  0  0  0  0  0  0  0  0
   10.1437   -6.5255    0.0000 C   0  0  0  0  0  0  0  0  0  0  0  0
    9.4292   -6.1129    0.0000 C   0  0  0  0  0  0  0  0  0  0  0  0
    8.7148   -6.5255    0.0000 C   0  0  0  0  0  0  0  0  0  0  0  0
    8.7148   -7.3505    0.0000 C   0  0  0  0  0  0  0  0  0  0  0  0
    9.4292   -7.7630    0.0000 C   0  0  0  0  0  0  0  0  0  0  0  0
   10.1437   -7.3505    0.0000 C   0  0  0  0  0  0  0  0  0  0  0  0
    8.0003   -7.7630    0.0000 S   0  0  0  0  0  0  0  0  0  0  0  0
    8.0003   -8.5880    0.0000 O   0  0  0  0  0  0  0  0  0  0  0  0
    7.2858   -7.3505    0.0000 C   0  0  0  0  0  0  0  0  0  0  0  0
   11.8540   -3.4351    0.0000 C   0  0  0  0  0  0  0  0  0  0  0  0
   12.6509   -3.6486    0.0000 C   0  0  0  0  0  0  0  0  0  0  0  0
   13.2343   -3.0652    0.0000 O   0  0  0  0  0  0  0  0  0  0  0  0
   12.9370   -4.4274    0.0000 O   0  0  0  0  0  0  0  0  0  0  0  0
    8.5033   -2.9935    0.0000 F   0  0  0  0  0  0  0  0  0  0  0  0
   12.3225   -5.0165    0.0000 C   0  0  0  0  0  0  0  0  0  0  0  0
  1  2  1  0
  2  3  2  0
  3  4  1  0
  1  5  1  0
  6  4  1  0
  5  4  2  0
  9  5  1  0
  6  7  2  0
  7  8  1  0
  8  9  2  0
  1 10  2  0
 10 11  1  0
 16 11  1  0
 12 11  2  0
 12 13  1  0
 13 14  2  0
 14 15  1  0
 15 16  2  0
 14 17  1  0
 17 18  2  0
 17 19  1  0
  3 20  1  0
 20 21  1  0
 21 22  1  0
 21 23  2  0
  7 24  1  0
  2 25  1  0
M  END
$$$$
