929
     RDKit          2D

 27 27  0  0  1  0  0  0  0  0999 V2000
   10.1452   -1.7365    0.0000 O   0  0  0  0  0  0  0  0  0  0  0  0
    7.7957   -3.4435    0.0000 O   0  0  0  0  0  0  0  0  0  0  0  0
    9.7096    1.6830    0.0000 O   0  0  0  0  0  0  0  0  0  0  0  0
    2.4347   -3.1799    0.0000 O   0  0  0  0  0  0  0  0  0  0  0  0
    2.8763   -1.8208    0.0000 O   0  0  0  0  0  0  0  0  0  0  0  0
    8.0257   -1.9915    0.0000 C   0  0  0  0  0  0  0  0  0  0  0  0
    8.6931   -1.5066    0.0000 C   0  0  0  0  0  0  0  0  0  0  0  0
    9.3606   -1.9915    0.0000 C   0  0  0  0  0  0  0  0  0  0  0  0
    9.1056   -2.7761    0.0000 C   0  0  0  0  0  0  0  0  0  0  0  0
    7.2410   -1.7365    0.0000 C   0  0  0  0  0  0  0  0  0  0  0  0
    8.2806   -2.7761    0.0000 C   0  0  0  0  0  0  0  0  0  0  0  0
    8.6931   -0.6815    0.0000 C   0  0  0  0  0  0  0  0  0  0  0  0
    6.6279   -2.2886    0.0000 C   0  0  0  0  0  0  0  0  0  0  0  0
    5.8433   -2.0337    0.0000 C   0  0  0  0  0  0  0  0  0  0  0  0
    9.4076   -0.2690    0.0000 C   0  0  0  0  0  0  0  0  0  0  0  0
   10.1221    0.9685    0.0000 C   0  0  0  0  0  0  0  0  0  0  0  0
    9.4076    0.5560    0.0000 C   0  0  0  0  0  0  0  0  0  0  0  0
    5.2302   -2.5857    0.0000 C   0  0  0  0  0  0  0  0  0  0  0  0
   10.8366    1.3810    0.0000 C   0  0  0  0  0  0  0  0  0  0  0  0
   10.5346    0.2540    0.0000 C   0  0  0  0  0  0  0  0  0  0  0  0
    4.4455   -2.3308    0.0000 C   0  0  0  0  0  0  0  0  0  0  0  0
   10.8366    2.2060    0.0000 C   0  0  0  0  0  0  0  0  0  0  0  0
   11.5511    2.6185    0.0000 C   0  0  0  0  0  0  0  0  0  0  0  0
    3.8325   -2.8828    0.0000 C   0  0  0  0  0  0  0  0  0  0  0  0
   11.5511    3.4435    0.0000 C   0  0  0  0  0  0  0  0  0  0  0  0
    3.0478   -2.6278    0.0000 C   0  0  0  0  0  0  0  0  0  0  0  0
    1.6500   -2.9249    0.0000 C   0  0  0  0  0  0  0  0  0  0  0  0
  8  1  1  6
  2 11  2  0
  3 16  1  0
  4 26  1  0
  4 27  1  0
  5 26  2  0
  6  7  1  0
  6 10  1  6
  6 11  1  0
  7  8  1  0
  7 12  1  1
  8  9  1  0
  9 11  1  0
 10 13  1  0
 12 15  2  0
 13 14  1  0
 14 18  1  0
 15 17  1  0
 16 17  1  0
 16 19  1  0
 16 20  1  0
 18 21  1  0
 19 22  1  0
 21 24  1  0
 22 23  1  0
 23 25  1  0
 24 26  1  0
M  END
$$$$
