590
     RDKit          2D

 33 37  0  0  1  0  0  0  0  0999 V2000
    3.8490    1.5714    0.0000 O   0  0  0  0  0  0  0  0  0  0  0  0
    3.8490   -0.0784    0.0000 O   0  0  0  0  0  0  0  0  0  0  0  0
    5.2777    2.3963    0.0000 O   0  0  0  0  0  0  0  0  0  0  0  0
   11.7615    0.3540    0.0000 O   0  0  0  0  0  0  0  0  0  0  0  0
   11.7615   -1.3356    0.0000 O   0  0  0  0  0  0  0  0  0  0  0  0
    5.9921    1.1589    0.0000 N   0  0  0  0  0  0  0  0  0  0  0  0
    7.4209    0.3341    0.0000 N   0  0  0  0  0  0  0  0  0  0  0  0
    8.8496    0.3341    0.0000 N   0  0  0  0  0  0  0  0  0  0  0  0
    8.1352   -0.9033    0.0000 N   0  0  0  0  0  0  0  0  0  0  0  0
    8.8496   -2.1406    0.0000 N   0  0  0  0  0  0  0  0  0  0  0  0
    6.7064    1.5714    0.0000 C   0  0  0  0  0  0  0  0  0  0  0  0
    5.9921    0.3341    0.0000 C   0  0  0  0  0  0  0  0  0  0  0  0
    7.4209    1.1589    0.0000 C   0  0  0  0  0  0  0  0  0  0  0  0
    6.7064   -0.0784    0.0000 C   0  0  0  0  0  0  0  0  0  0  0  0
    5.2777    1.5714    0.0000 C   0  0  0  0  0  0  0  0  0  0  0  0
    4.5634    1.1589    0.0000 C   0  0  0  0  0  0  0  0  0  0  0  0
    8.1352   -0.0784    0.0000 C   0  0  0  0  0  0  0  0  0  0  0  0
    4.5634    0.3341    0.0000 C   0  0  0  0  0  0  0  0  0  0  0  0
    3.1346    1.1589    0.0000 C   0  0  0  0  0  0  0  0  0  0  0  0
    9.5639   -0.0784    0.0000 C   0  0  0  0  0  0  0  0  0  0  0  0
    3.1346    0.3341    0.0000 C   0  0  0  0  0  0  0  0  0  0  0  0
    9.5639   -0.9033    0.0000 C   0  0  0  0  0  0  0  0  0  0  0  0
    8.8496   -1.3157    0.0000 C   0  0  0  0  0  0  0  0  0  0  0  0
   10.3014    0.3628    0.0000 C   0  0  0  0  0  0  0  0  0  0  0  0
    2.3972    1.6001    0.0000 C   0  0  0  0  0  0  0  0  0  0  0  0
   10.3014   -1.3443    0.0000 C   0  0  0  0  0  0  0  0  0  0  0  0
    2.3972   -0.1070    0.0000 C   0  0  0  0  0  0  0  0  0  0  0  0
   11.0487   -0.0612    0.0000 C   0  0  0  0  0  0  0  0  0  0  0  0
   11.0487   -0.9204    0.0000 C   0  0  0  0  0  0  0  0  0  0  0  0
    1.6498    1.1761    0.0000 C   0  0  0  0  0  0  0  0  0  0  0  0
    1.6498    0.3170    0.0000 C   0  0  0  0  0  0  0  0  0  0  0  0
   11.7584    1.1788    0.0000 C   0  0  0  0  0  0  0  0  0  0  0  0
   12.4775   -0.9260    0.0000 C   0  0  0  0  0  0  0  0  0  0  0  0
  1 16  1  0
  1 19  1  0
  2 18  1  0
  2 21  1  0
  3 15  2  0
  4 28  1  0
  4 32  1  0
  5 29  1  0
  5 33  1  0
  6 11  1  0
  6 12  1  0
  6 15  1  0
  7 13  1  0
  7 14  1  0
  7 17  1  0
  8 17  2  0
  8 20  1  0
  9 17  1  0
  9 23  2  0
 10 23  1  0
 11 13  1  0
 12 14  1  0
 15 16  1  0
 16 18  1  0
 19 21  2  0
 19 25  1  0
 20 22  2  0
 20 24  1  0
 21 27  1  0
 22 23  1  0
 22 26  1  0
 24 28  2  0
 25 30  2  0
 26 29  2  0
 27 31  2  0
 28 29  1  0
 30 31  1  0
M  END
$$$$
