2140
     RDKit          2D

 20 20  0  0  0  0  0  0  0  0999 V2000
    2.3645    0.4125    0.0000 I   0  0  0  0  0  0  0  0  0  0  0  0
    5.2224    0.4125    0.0000 I   0  0  0  0  0  0  0  0  0  0  0  0
    3.7935   -2.0625    0.0000 I   0  0  0  0  0  0  0  0  0  0  0  0
    5.2224   -2.0625    0.0000 O   0  0  0  0  0  0  0  0  0  0  0  0
    5.9370   -0.8250    0.0000 O   0  0  0  0  0  0  0  0  0  0  0  0
    3.0790   -2.4751    0.0000 O   0  0  0  0  0  0  0  0  0  0  0  0
    5.2224    1.2375    0.0000 O   0  0  0  0  0  0  0  0  0  0  0  0
    2.3645   -1.2375    0.0000 N   0  0  0  0  0  0  0  0  0  0  0  0
    3.7935    1.2375    0.0000 N   0  0  0  0  0  0  0  0  0  0  0  0
    3.0790   -0.8250    0.0000 C   0  0  0  0  0  0  0  0  0  0  0  0
    3.7935    0.4125    0.0000 C   0  0  0  0  0  0  0  0  0  0  0  0
    3.0790    0.0000    0.0000 C   0  0  0  0  0  0  0  0  0  0  0  0
    4.5080   -0.8250    0.0000 C   0  0  0  0  0  0  0  0  0  0  0  0
    4.5080    0.0000    0.0000 C   0  0  0  0  0  0  0  0  0  0  0  0
    3.7935   -1.2375    0.0000 C   0  0  0  0  0  0  0  0  0  0  0  0
    5.2224   -1.2375    0.0000 C   0  0  0  0  0  0  0  0  0  0  0  0
    2.3645   -2.0625    0.0000 C   0  0  0  0  0  0  0  0  0  0  0  0
    4.5080    1.6500    0.0000 C   0  0  0  0  0  0  0  0  0  0  0  0
    1.6500   -2.4751    0.0000 C   0  0  0  0  0  0  0  0  0  0  0  0
    4.5080    2.4751    0.0000 C   0  0  0  0  0  0  0  0  0  0  0  0
  1 12  1  0
  2 14  1  0
  3 15  1  0
  4 16  1  0
  5 16  2  0
  6 17  2  0
  7 18  2  0
  8 10  1  0
  8 17  1  0
  9 11  1  0
  9 18  1  0
 10 12  2  0
 10 15  1  0
 11 12  1  0
 11 14  2  0
 13 14  1  0
 13 15  2  0
 13 16  1  0
 17 19  1  0
 18 20  1  0
M  END
$$$$
