
     RDKit          2D

 56 59  0  0  0  0  0  0  0  0999 V2000
   -3.2107   -0.6552    0.0000 C   0  0  0  0  0  0  0  0  0  0  0  0
   -3.2107    0.1698    0.0000 C   0  0  0  0  0  0  0  0  0  0  0  0
   -2.4971    0.5824    0.0000 C   0  0  0  0  0  0  0  0  0  0  0  0
   -2.4971    1.4075    0.0000 N   0  0  0  0  0  0  0  0  0  0  0  0
   -2.4971   -1.0580    0.0000 O   0  0  0  0  0  0  0  0  0  0  0  0
   -0.3518    1.8250    0.0000 O   0  0  0  0  0  0  0  0  0  0  0  0
   -1.0653    1.4124    0.0000 C   0  0  0  0  0  0  0  0  0  0  0  0
    0.3615    1.4124    0.0000 C   0  0  0  0  0  0  0  0  0  0  0  0
   -2.5020   -1.8880    0.0000 C   0  0  0  0  0  0  0  0  0  0  0  0
   -1.7836    1.8201    0.0000 C   0  0  0  0  0  0  0  0  0  0  0  0
    1.0750    1.8250    0.0000 C   0  0  0  0  0  0  0  0  0  0  0  0
    0.3615    0.5873    0.0000 C   0  0  0  0  0  0  0  0  0  0  0  0
   -3.9291   -1.0629    0.0000 C   0  0  0  0  0  0  0  0  0  0  0  0
    1.7934   -1.0629    0.0000 C   0  0  0  0  0  0  0  0  0  0  0  0
    1.0750    0.1747    0.0000 C   0  0  0  0  0  0  0  0  0  0  0  0
    1.0750   -0.6503    0.0000 C   0  0  0  0  0  0  0  0  0  0  0  0
    1.0750    2.6501    0.0000 C   0  0  0  0  0  0  0  0  0  0  0  0
   -3.2156   -2.3007    0.0000 C   0  0  0  0  0  0  0  0  0  0  0  0
    1.0799   -2.3007    0.0000 C   0  0  0  0  0  0  0  0  0  0  0  0
   -1.9583   -2.8442    0.0000 C   0  0  0  0  0  0  0  0  0  0  0  0
    1.0799   -3.1258    0.0000 C   0  0  0  0  0  0  0  0  0  0  0  0
   -3.9291   -1.8832    0.0000 C   0  0  0  0  0  0  0  0  0  0  0  0
    1.7934   -1.8880    0.0000 C   0  0  0  0  0  0  0  0  0  0  0  0
   -3.9242    0.5824    0.0000 O   0  0  0  0  0  0  0  0  0  0  0  0
   -1.7789    0.1698    0.0000 O   0  0  0  0  0  0  0  0  0  0  0  0
   -1.0653    0.5873    0.0000 O   0  0  0  0  0  0  0  0  0  0  0  0
    3.2108    3.0578    0.0000 C   0  0  0  0  0  0  0  0  0  0  0  0
    1.7885    3.0627    0.0000 C   0  0  0  0  0  0  0  0  0  0  0  0
   -1.1332   -2.8442    0.0000 C   0  0  0  0  0  0  0  0  0  0  0  0
   -3.9291   -0.2378    0.0000 O   0  0  0  0  0  0  0  0  0  0  0  0
    2.5020    2.6452    0.0000 C   0  0  0  0  0  0  0  0  0  0  0  0
    2.5069   -0.6503    0.0000 O   0  0  0  0  0  0  0  0  0  0  0  0
    3.2156    3.8829    0.0000 C   0  0  0  0  0  0  0  0  0  0  0  0
    0.2353   -3.5578    0.0000 C   0  0  0  0  0  0  0  0  0  0  0  0
   -0.5897   -3.5578    0.0000 C   0  0  0  0  0  0  0  0  0  0  0  0
    2.5020    4.2955    0.0000 C   0  0  0  0  0  0  0  0  0  0  0  0
   -3.2107    1.8201    0.0000 C   0  0  0  0  0  0  0  0  0  0  0  0
    1.7934    0.5873    0.0000 O   0  0  0  0  0  0  0  0  0  0  0  0
    1.7837    3.8829    0.0000 C   0  0  0  0  0  0  0  0  0  0  0  0
   -3.2204   -3.1258    0.0000 O   0  0  0  0  0  0  0  0  0  0  0  0
   -2.3759   -3.5529    0.0000 O   0  0  0  0  0  0  0  0  0  0  0  0
    3.9340    4.2906    0.0000 Cl  0  0  0  0  0  0  0  0  0  0  0  0
    3.9243    2.6404    0.0000 O   0  0  0  0  0  0  0  0  0  0  0  0
    1.7885    1.4124    0.0000 C   0  0  0  0  0  0  0  0  0  0  0  0
   -0.3518    0.1747    0.0000 C   0  0  0  0  0  0  0  0  0  0  0  0
   -1.7836    2.6452    0.0000 C   0  0  0  0  0  0  0  0  0  0  0  0
   -4.6426   -0.6456    0.0000 C   0  0  0  0  0  0  0  0  0  0  0  0
    1.7934   -3.5383    0.0000 C   0  0  0  0  0  0  0  0  0  0  0  0
    2.5069   -2.3007    0.0000 C   0  0  0  0  0  0  0  0  0  0  0  0
   -0.9585   -4.2955    0.0000 C   0  0  0  0  0  0  0  0  0  0  0  0
   -1.9681   -4.2713    0.0000 C   0  0  0  0  0  0  0  0  0  0  0  0
   -3.9340   -3.5334    0.0000 C   0  0  0  0  0  0  0  0  0  0  0  0
    4.6426    3.0530    0.0000 C   0  0  0  0  0  0  0  0  0  0  0  0
   -3.2107    2.6452    0.0000 C   0  0  0  0  0  0  0  0  0  0  0  0
    3.2204   -1.8880    0.0000 C   0  0  0  0  0  0  0  0  0  0  0  0
   -2.4971    3.0578    0.0000 C   0  0  0  0  0  0  0  0  0  0  0  0
  2  1  1  0
  3  2  1  0
  4  3  1  0
  5  1  1  0
  6  7  1  0
  7 10  1  0
  8  6  1  0
  9  5  1  6
 10  4  1  0
  8 11  1  6
 12  8  1  0
 13  1  1  0
 14 23  1  0
 15 12  1  0
 16 15  1  0
 17 11  2  0
 18 22  1  0
 19 21  2  0
 20  9  1  0
 21 34  1  0
 22 13  1  0
 23 19  1  0
 24  2  2  0
 25  3  2  0
 26  7  2  0
 27 31  1  0
 28 17  1  6
 29 20  1  0
  1 30  1  1
 31 28  1  0
 32 14  2  0
 33 36  1  0
 34 35  1  0
 35 29  1  0
 36 39  1  0
 37  4  1  0
 15 38  1  1
 39 28  1  0
 18 40  1  1
 20 41  1  6
 33 42  1  6
 27 43  1  6
 44 11  1  0
 12 45  1  1
 10 46  1  1
 13 47  1  1
 48 21  1  0
 23 49  1  6
 35 50  1  6
 51 41  1  0
 52 40  1  0
 53 43  1  0
 54 37  1  0
 55 49  1  0
 56 46  1  0
  9 18  1  0
 56 54  1  0
 14 16  1  0
 33 27  1  0
M  END
$$$$
