
     RDKit          2D

 28 31  0  0  1  0  0  0  0  0999 V2000
    5.7755   -5.7759    0.0000 C   0  0  0  0  0  0  0  0  0  0  0  0
    5.7755   -6.5707    0.0000 C   0  0  0  0  0  0  0  0  0  0  0  0
    6.4868   -6.9891    0.0000 C   0  0  0  0  0  0  0  0  0  0  0  0
    7.1981   -6.5707    0.0000 C   0  0  0  0  0  0  0  0  0  0  0  0
    7.1981   -5.7759    0.0000 C   0  0  0  0  0  0  0  0  0  0  0  0
    6.4868   -5.3575    0.0000 C   0  0  0  0  0  0  0  0  0  0  0  0
    7.9092   -6.9891    0.0000 C   0  0  0  0  0  0  0  0  0  0  0  0
    8.5786   -6.5707    0.0000 C   0  0  0  0  0  0  0  0  0  0  0  0
    8.5786   -5.7759    0.0000 C   0  0  0  0  0  0  0  0  0  0  0  0
    7.9092   -5.3575    0.0000 C   0  0  0  0  0  0  0  0  0  0  0  0
    9.2898   -5.3575    0.0000 C   0  0  0  0  0  0  0  0  0  0  0  0
    9.2898   -4.5626    0.0000 C   0  0  0  0  0  0  0  0  0  0  0  0
    8.5786   -4.1443    0.0000 C   0  0  0  0  0  0  0  0  0  0  0  0
    7.9092   -4.5626    0.0000 C   0  0  0  0  0  0  0  0  0  0  0  0
    7.9092   -7.8258    0.0000 F   0  0  0  0  0  0  0  0  0  0  0  0
    7.9092   -6.1942    0.0000 Cl  0  0  0  0  0  0  0  0  0  0  0  0
    9.2480   -3.7260    0.0000 C   0  0  0  0  0  0  0  0  0  0  0  0
    7.1981   -4.9810    0.0000 C   0  0  0  0  0  0  0  0  0  0  0  0
    5.0644   -6.9891    0.0000 O   0  0  0  0  0  0  0  0  0  0  0  0
    7.1981   -4.1443    0.0000 O   0  0  0  0  0  0  0  0  0  0  0  0
   10.0458   -4.3170    0.0000 C   0  0  0  0  0  0  0  0  0  0  0  0
   10.5129   -4.9601    0.0000 C   0  0  0  0  0  0  0  0  0  0  0  0
   10.0459   -5.6032    0.0000 C   0  0  0  0  0  0  0  0  0  0  0  0
   10.3008   -3.5323    0.0000 C   0  0  0  0  0  0  0  0  0  0  0  0
   11.1079   -3.3607    0.0000 C   0  0  0  0  0  0  0  0  0  0  0  0
    9.7486   -2.9191    0.0000 O   0  0  0  0  0  0  0  0  0  0  0  0
   11.6598   -3.9739    0.0000 O   0  0  0  0  0  0  0  0  0  0  0  0
   11.3381   -4.9600    0.0000 C   0  0  0  0  0  0  0  0  0  0  0  0
  1  2  1  0
  2  3  1  0
  3  4  2  0
  4  5  1  0
  5  6  1  0
  1  6  2  0
  4  7  1  0
  7  8  1  0
  9  8  1  6
  9 10  1  0
  5 10  1  0
  9 11  1  0
 12 13  1  0
 13 14  1  0
 10 14  1  0
  7 15  1  6
 10 16  1  6
 12 17  1  1
  5 18  1  1
  2 19  2  0
 14 20  1  1
 21 12  1  0
 11 12  1  0
 22 21  1  0
 11 23  1  1
 23 22  1  0
 21 24  1  1
 24 25  1  0
 24 26  2  0
 25 27  1  0
 22 28  1  6
M  END
$$$$
