765
     RDKit          2D

 14 14  0  0  1  0  0  0  0  0999 V2000
    3.7935    2.4751    0.0000 O   0  0  0  0  0  0  0  0  0  0  0  0
    4.5080    1.2375    0.0000 O   0  0  0  0  0  0  0  0  0  0  0  0
    2.3645   -2.4751    0.0000 O   0  0  0  0  0  0  0  0  0  0  0  0
    2.6665    1.9520    0.0000 N   0  0  0  0  0  0  0  0  0  0  0  0
    3.0791    1.2375    0.0000 C   0  0  0  0  0  0  0  0  0  0  0  0
    2.3645    0.8250    0.0000 C   0  0  0  0  0  0  0  0  0  0  0  0
    2.3645    0.0000    0.0000 C   0  0  0  0  0  0  0  0  0  0  0  0
    3.4916    0.5231    0.0000 C   0  0  0  0  0  0  0  0  0  0  0  0
    3.7935    1.6500    0.0000 C   0  0  0  0  0  0  0  0  0  0  0  0
    3.0791   -0.4125    0.0000 C   0  0  0  0  0  0  0  0  0  0  0  0
    1.6500   -0.4125    0.0000 C   0  0  0  0  0  0  0  0  0  0  0  0
    3.0791   -1.2375    0.0000 C   0  0  0  0  0  0  0  0  0  0  0  0
    1.6500   -1.2375    0.0000 C   0  0  0  0  0  0  0  0  0  0  0  0
    2.3645   -1.6500    0.0000 C   0  0  0  0  0  0  0  0  0  0  0  0
  1  9  1  0
  2  9  2  0
  3 14  1  0
  5  4  1  0
  5  6  1  0
  5  8  1  1
  5  9  1  0
  6  7  1  0
  7 10  2  0
  7 11  1  0
 10 12  1  0
 11 13  2  0
 12 14  2  0
 13 14  1  0
M  END
$$$$
