646
     RDKit          2D

 65 66  0  0  1  0  0  0  0  0999 V2000
    4.9509    3.3001    0.0000 O   0  0  0  0  0  0  0  0  0  0  0  0
    4.2365    2.0625    0.0000 O   0  0  0  0  0  0  0  0  0  0  0  0
    2.8075    2.8876    0.0000 O   0  0  0  0  0  0  0  0  0  0  0  0
    4.2365    5.3626    0.0000 O   0  0  0  0  0  0  0  0  0  0  0  0
    7.0944    2.0625    0.0000 O   0  0  0  0  0  0  0  0  0  0  0  0
    5.3832    1.1878    0.0000 O   0  0  0  0  0  0  0  0  0  0  0  0
    9.2379   -4.1251    0.0000 O   0  0  0  0  0  0  0  0  0  0  0  0
    6.7925   -0.9356    0.0000 O   0  0  0  0  0  0  0  0  0  0  0  0
    5.6655   -2.8876    0.0000 O   0  0  0  0  0  0  0  0  0  0  0  0
    8.5234   -2.8876    0.0000 O   0  0  0  0  0  0  0  0  0  0  0  0
    7.6175    1.5395    0.0000 O   0  0  0  0  0  0  0  0  0  0  0  0
   10.6668   -1.6500    0.0000 O   0  0  0  0  0  0  0  0  0  0  0  0
    7.0944   -5.3626    0.0000 O   0  0  0  0  0  0  0  0  0  0  0  0
    7.6175    0.1106    0.0000 O   0  0  0  0  0  0  0  0  0  0  0  0
    4.2365   -1.2375    0.0000 O   0  0  0  0  0  0  0  0  0  0  0  0
   11.3814   -2.8876    0.0000 O   0  0  0  0  0  0  0  0  0  0  0  0
    9.9524   -5.3626    0.0000 O   0  0  0  0  0  0  0  0  0  0  0  0
    2.8075    4.5376    0.0000 N   0  0  0  0  0  0  0  0  0  0  0  0
    3.5220    4.1251    0.0000 C   0  0  0  0  0  0  0  0  0  0  0  0
    3.5220    3.3001    0.0000 C   0  0  0  0  0  0  0  0  0  0  0  0
    4.2365    4.5376    0.0000 C   0  0  0  0  0  0  0  0  0  0  0  0
    4.2365    2.8876    0.0000 C   0  0  0  0  0  0  0  0  0  0  0  0
    4.9509    4.1251    0.0000 C   0  0  0  0  0  0  0  0  0  0  0  0
    4.9509    1.6500    0.0000 C   0  0  0  0  0  0  0  0  0  0  0  0
    5.6655    2.0625    0.0000 C   0  0  0  0  0  0  0  0  0  0  0  0
    6.3799    1.6500    0.0000 C   0  0  0  0  0  0  0  0  0  0  0  0
    6.3799    0.8250    0.0000 C   0  0  0  0  0  0  0  0  0  0  0  0
    5.6655    4.5376    0.0000 C   0  0  0  0  0  0  0  0  0  0  0  0
    5.6655    0.4125    0.0000 C   0  0  0  0  0  0  0  0  0  0  0  0
    5.6655   -0.4125    0.0000 C   0  0  0  0  0  0  0  0  0  0  0  0
    4.9509    0.8250    0.0000 C   0  0  0  0  0  0  0  0  0  0  0  0
    6.3799   -1.6500    0.0000 C   0  0  0  0  0  0  0  0  0  0  0  0
    5.6655   -2.0625    0.0000 C   0  0  0  0  0  0  0  0  0  0  0  0
    7.0944   -2.0625    0.0000 C   0  0  0  0  0  0  0  0  0  0  0  0
    7.8089   -1.6500    0.0000 C   0  0  0  0  0  0  0  0  0  0  0  0
    8.5234   -2.0625    0.0000 C   0  0  0  0  0  0  0  0  0  0  0  0
    4.9509   -1.6500    0.0000 C   0  0  0  0  0  0  0  0  0  0  0  0
    7.8089   -4.1251    0.0000 C   0  0  0  0  0  0  0  0  0  0  0  0
    9.2379   -1.6500    0.0000 C   0  0  0  0  0  0  0  0  0  0  0  0
    7.2050    0.8250    0.0000 C   0  0  0  0  0  0  0  0  0  0  0  0
    4.9509   -0.8250    0.0000 C   0  0  0  0  0  0  0  0  0  0  0  0
    9.9524   -2.0625    0.0000 C   0  0  0  0  0  0  0  0  0  0  0  0
    7.0944   -4.5376    0.0000 C   0  0  0  0  0  0  0  0  0  0  0  0
    8.5234   -4.5376    0.0000 C   0  0  0  0  0  0  0  0  0  0  0  0
    9.9524   -2.8876    0.0000 C   0  0  0  0  0  0  0  0  0  0  0  0
    6.3799   -4.1251    0.0000 C   0  0  0  0  0  0  0  0  0  0  0  0
   10.6668   -3.3001    0.0000 C   0  0  0  0  0  0  0  0  0  0  0  0
    7.8089   -3.3001    0.0000 C   0  0  0  0  0  0  0  0  0  0  0  0
    4.2365    0.4125    0.0000 C   0  0  0  0  0  0  0  0  0  0  0  0
   10.6668   -4.1251    0.0000 C   0  0  0  0  0  0  0  0  0  0  0  0
    8.5234   -5.3626    0.0000 C   0  0  0  0  0  0  0  0  0  0  0  0
    6.3799   -3.3001    0.0000 C   0  0  0  0  0  0  0  0  0  0  0  0
    9.9524   -4.5376    0.0000 C   0  0  0  0  0  0  0  0  0  0  0  0
    5.6655   -4.5376    0.0000 C   0  0  0  0  0  0  0  0  0  0  0  0
    4.2365   -0.4125    0.0000 C   0  0  0  0  0  0  0  0  0  0  0  0
    4.9509   -4.1251    0.0000 C   0  0  0  0  0  0  0  0  0  0  0  0
    3.5220   -0.8250    0.0000 C   0  0  0  0  0  0  0  0  0  0  0  0
    4.2365   -4.5376    0.0000 C   0  0  0  0  0  0  0  0  0  0  0  0
    3.5220   -1.6500    0.0000 C   0  0  0  0  0  0  0  0  0  0  0  0
    3.5220   -4.1251    0.0000 C   0  0  0  0  0  0  0  0  0  0  0  0
    2.8075   -4.5376    0.0000 C   0  0  0  0  0  0  0  0  0  0  0  0
    2.8075   -2.0625    0.0000 C   0  0  0  0  0  0  0  0  0  0  0  0
    2.0930   -4.1251    0.0000 C   0  0  0  0  0  0  0  0  0  0  0  0
    2.8075   -2.8876    0.0000 C   0  0  0  0  0  0  0  0  0  0  0  0
    2.0930   -3.3001    0.0000 C   0  0  0  0  0  0  0  0  0  0  0  0
  1 22  1  0
  1 23  1  0
  2 22  1  0
  2 24  1  0
 20  3  1  1
 21  4  1  6
  5 26  1  0
  6 29  1  0
  7 44  1  0
  7 53  1  0
  8 32  1  0
  9 33  1  0
 10 36  1  0
 11 40  1  0
 12 42  1  0
 13 43  1  0
 14 40  2  0
 15 41  2  0
 16 47  1  0
 17 53  2  0
 19 18  1  1
 19 20  1  0
 19 21  1  0
 20 22  1  0
 21 23  1  0
 23 28  1  1
 24 25  1  0
 24 31  1  0
 25 26  1  0
 26 27  1  0
 27 29  1  0
 27 40  1  0
 29 30  1  0
 30 41  1  0
 31 49  2  0
 32 33  1  0
 32 34  1  0
 33 37  1  0
 34 35  1  0
 35 36  1  0
 36 39  1  0
 37 41  1  0
 38 43  1  0
 38 44  1  0
 38 48  1  0
 39 42  1  0
 42 45  1  0
 43 46  1  0
 44 51  1  0
 45 47  1  0
 46 52  1  0
 46 54  1  0
 47 50  1  0
 49 55  1  0
 50 53  1  0
 54 56  2  0
 55 57  2  0
 56 58  1  0
 57 59  1  0
 58 60  2  0
 59 62  2  0
 60 61  1  0
 61 63  1  0
 62 64  1  0
 63 65  1  0
 64 65  2  0
M  END
$$$$
