567
     RDKit          2D

 24 26  0  0  1  0  0  0  0  0999 V2000
    3.0790   -0.8460    0.0000 S   0  0  0  0  0  0  0  0  0  0  0  0
    5.2074    0.9795    0.0000 O   0  0  0  0  0  0  0  0  0  0  0  0
    6.2199   -0.0131    0.0000 O   0  0  0  0  0  0  0  0  0  0  0  0
    2.3644    2.0415    0.0000 O   0  0  0  0  0  0  0  0  0  0  0  0
    3.7934    2.0415    0.0000 O   0  0  0  0  0  0  0  0  0  0  0  0
    3.7934    0.3915    0.0000 N   0  0  0  0  0  0  0  0  0  0  0  0
    5.2074   -1.0214    0.0000 N   0  0  0  0  0  0  0  0  0  0  0  0
    6.3717   -2.1906    0.0000 N   0  0  0  0  0  0  0  0  0  0  0  0
    3.7934   -0.4335    0.0000 C   0  0  0  0  0  0  0  0  0  0  0  0
    4.6253   -0.4369    0.0000 C   0  0  0  0  0  0  0  0  0  0  0  0
    4.6253    0.3949    0.0000 C   0  0  0  0  0  0  0  0  0  0  0  0
    3.0790    0.8040    0.0000 C   0  0  0  0  0  0  0  0  0  0  0  0
    2.3644   -0.4335    0.0000 C   0  0  0  0  0  0  0  0  0  0  0  0
    2.3644    0.3915    0.0000 C   0  0  0  0  0  0  0  0  0  0  0  0
    6.0048   -0.8096    0.0000 C   0  0  0  0  0  0  0  0  0  0  0  0
    1.6500    0.8040    0.0000 C   0  0  0  0  0  0  0  0  0  0  0  0
    3.0790    1.6290    0.0000 C   0  0  0  0  0  0  0  0  0  0  0  0
    6.5869   -1.3942    0.0000 C   0  0  0  0  0  0  0  0  0  0  0  0
    7.3842   -1.1822    0.0000 C   0  0  0  0  0  0  0  0  0  0  0  0
    7.5994   -0.3858    0.0000 C   0  0  0  0  0  0  0  0  0  0  0  0
    7.9664   -1.7668    0.0000 C   0  0  0  0  0  0  0  0  0  0  0  0
    8.3967   -0.1739    0.0000 C   0  0  0  0  0  0  0  0  0  0  0  0
    8.7637   -1.5550    0.0000 C   0  0  0  0  0  0  0  0  0  0  0  0
    8.9789   -0.7585    0.0000 C   0  0  0  0  0  0  0  0  0  0  0  0
  9  1  1  1
  1 13  1  0
  2 11  2  0
  3 15  2  0
  4 17  1  0
  5 17  2  0
  6  9  1  0
  6 11  1  0
  6 12  1  0
 10  7  1  1
  7 15  1  0
 18  8  1  1
  9 10  1  0
 10 11  1  0
 12 14  2  0
 12 17  1  0
 13 14  1  0
 14 16  1  0
 15 18  1  0
 18 19  1  0
 19 20  2  0
 19 21  1  0
 20 22  1  0
 21 23  2  0
 22 24  2  0
 23 24  1  0
M  END
$$$$
