474
     RDKit          2D

 19 19  0  0  1  0  0  0  0  0999 V2000
    4.7291   -0.5487    0.0000 O   0  0  0  0  0  0  0  0  0  0  0  0
    1.8711   -0.5487    0.0000 O   0  0  0  0  0  0  0  0  0  0  0  0
    3.3001   -3.0238    0.0000 O   0  0  0  0  0  0  0  0  0  0  0  0
    4.0145   -1.7862    0.0000 N   0  0  0  0  0  0  0  0  0  0  0  0
    2.5856   -1.7862    0.0000 N   0  0  0  0  0  0  0  0  0  0  0  0
    3.3001   -0.5487    0.0000 C   0  0  0  0  0  0  0  0  0  0  0  0
    3.7126    0.1658    0.0000 C   0  0  0  0  0  0  0  0  0  0  0  0
    2.8876    0.1658    0.0000 C   0  0  0  0  0  0  0  0  0  0  0  0
    4.0145   -0.9612    0.0000 C   0  0  0  0  0  0  0  0  0  0  0  0
    2.5856   -0.9612    0.0000 C   0  0  0  0  0  0  0  0  0  0  0  0
    4.5376    0.1658    0.0000 C   0  0  0  0  0  0  0  0  0  0  0  0
    3.3001   -2.1988    0.0000 C   0  0  0  0  0  0  0  0  0  0  0  0
    2.0625    0.1658    0.0000 C   0  0  0  0  0  0  0  0  0  0  0  0
    3.3001    0.8803    0.0000 C   0  0  0  0  0  0  0  0  0  0  0  0
    4.7291   -2.1988    0.0000 C   0  0  0  0  0  0  0  0  0  0  0  0
    1.6500    0.8803    0.0000 C   0  0  0  0  0  0  0  0  0  0  0  0
    2.8876    1.5948    0.0000 C   0  0  0  0  0  0  0  0  0  0  0  0
    2.4751    2.3092    0.0000 C   0  0  0  0  0  0  0  0  0  0  0  0
    2.8876    3.0238    0.0000 C   0  0  0  0  0  0  0  0  0  0  0  0
  1  9  2  0
  2 10  2  0
  3 12  2  0
  4  9  1  0
  4 12  1  0
  4 15  1  0
  5 10  1  0
  5 12  1  0
  6  7  1  0
  6  8  1  0
  6  9  1  0
  6 10  1  0
  7 11  1  0
  7 14  1  0
  8 13  1  0
 13 16  2  3
 14 17  3  0
 17 18  1  0
 18 19  1  0
M  END
$$$$
