766
     RDKit          2D

 14 15  0  0  1  0  0  0  0  0999 V2000
    3.8486    1.1438    0.0000 O   0  0  0  0  0  0  0  0  0  0  0  0
    1.6500   -0.5242    0.0000 O   0  0  0  0  0  0  0  0  0  0  0  0
    4.9106   -1.1472    0.0000 O   0  0  0  0  0  0  0  0  0  0  0  0
    3.5515   -1.5889    0.0000 O   0  0  0  0  0  0  0  0  0  0  0  0
    6.3961    1.1908    0.0000 O   0  0  0  0  0  0  0  0  0  0  0  0
    3.0640    0.0638    0.0000 N   0  0  0  0  0  0  0  0  0  0  0  0
    3.0640    0.8888    0.0000 C   0  0  0  0  0  0  0  0  0  0  0  0
    3.8486   -0.1912    0.0000 C   0  0  0  0  0  0  0  0  0  0  0  0
    2.2322    0.8922    0.0000 C   0  0  0  0  0  0  0  0  0  0  0  0
    2.2322    0.0604    0.0000 C   0  0  0  0  0  0  0  0  0  0  0  0
    4.3336    0.4763    0.0000 C   0  0  0  0  0  0  0  0  0  0  0  0
    4.1036   -0.9757    0.0000 C   0  0  0  0  0  0  0  0  0  0  0  0
    5.1586    0.4763    0.0000 C   0  0  0  0  0  0  0  0  0  0  0  0
    5.5711    1.1908    0.0000 C   0  0  0  0  0  0  0  0  0  0  0  0
  1  7  1  0
  1 11  1  0
  2 10  2  0
  3 12  1  0
  4 12  2  0
  5 14  1  0
  6  7  1  0
  6  8  1  0
  6 10  1  0
  7  9  1  1
  8 11  1  0
  8 12  1  6
  9 10  1  0
 11 13  2  0
 13 14  1  0
M  END
$$$$
