
     RDKit          2D

 18 19  0  0  0  0  0  0  0  0999 V2000
    3.8484   -3.8637    0.0000 C   0  0  0  0  0  0  0  0  0  0  0  0
    4.5652   -3.4465    0.0000 C   0  0  0  0  0  0  0  0  0  0  0  0
    3.8484   -4.6910    0.0000 C   0  0  0  0  0  0  0  0  0  0  0  0
    3.1311   -3.4465    0.0000 C   0  0  0  0  0  0  0  0  0  0  0  0
    5.2790   -3.8603    0.0000 C   0  0  0  0  0  0  0  0  0  0  0  0
    3.1311   -5.1047    0.0000 C   0  0  0  0  0  0  0  0  0  0  0  0
    2.4109   -3.8637    0.0000 C   0  0  0  0  0  0  0  0  0  0  0  0
    5.9959   -3.4465    0.0000 N   0  0  0  0  0  0  0  0  0  0  0  0
    5.2824   -4.6841    0.0000 C   0  0  0  0  0  0  0  0  0  0  0  0
    2.4109   -4.6910    0.0000 C   0  0  0  0  0  0  0  0  0  0  0  0
    6.7095   -3.8568    0.0000 C   0  0  0  0  0  0  0  0  0  0  0  0
    5.9924   -2.6193    0.0000 C   0  0  0  0  0  0  0  0  0  0  0  0
    7.4232   -3.4432    0.0000 C   0  0  0  0  0  0  0  0  0  0  0  0
    8.1367   -3.8568    0.0000 C   0  0  0  0  0  0  0  0  0  0  0  0
    7.4196   -2.6193    0.0000 C   0  0  0  0  0  0  0  0  0  0  0  0
    8.8501   -3.4432    0.0000 C   0  0  0  0  0  0  0  0  0  0  0  0
    8.1332   -2.2056    0.0000 C   0  0  0  0  0  0  0  0  0  0  0  0
    8.8467   -2.6193    0.0000 C   0  0  0  0  0  0  0  0  0  0  0  0
  1  2  1  0
  1  3  2  0
  1  4  1  0
  2  5  1  0
  3  6  1  0
  4  7  2  0
  5  8  1  0
  5  9  1  1
  6 10  2  0
  8 11  1  0
  8 12  1  0
 11 13  1  0
 13 14  2  0
 13 15  1  0
 14 16  1  0
 15 17  2  0
 16 18  2  0
  7 10  1  0
 17 18  1  0
M  END
$$$$
