836
     RDKit          2D

 34 37  0  0  0  0  0  0  0  0999 V2000
    6.4896    4.5228    0.0000 Cl  0  0  0  0  0  0  0  0  0  0  0  0
    4.4270    2.3794    0.0000 O   0  0  0  0  0  0  0  0  0  0  0  0
    5.3626   -1.3332    0.0000 O   0  0  0  0  0  0  0  0  0  0  0  0
    4.8396    0.0148    0.0000 N   0  0  0  0  0  0  0  0  0  0  0  0
    5.7254   -2.3299    0.0000 N   0  0  0  0  0  0  0  0  0  0  0  0
    4.8396    1.6648    0.0000 C   0  0  0  0  0  0  0  0  0  0  0  0
    4.1251    1.2523    0.0000 C   0  0  0  0  0  0  0  0  0  0  0  0
    5.5541    1.2523    0.0000 C   0  0  0  0  0  0  0  0  0  0  0  0
    4.1251    0.4273    0.0000 C   0  0  0  0  0  0  0  0  0  0  0  0
    5.5541    0.4273    0.0000 C   0  0  0  0  0  0  0  0  0  0  0  0
    4.8396   -0.8103    0.0000 C   0  0  0  0  0  0  0  0  0  0  0  0
    4.1251   -1.2228    0.0000 C   0  0  0  0  0  0  0  0  0  0  0  0
    4.1251   -2.0478    0.0000 C   0  0  0  0  0  0  0  0  0  0  0  0
    5.2521    2.3794    0.0000 C   0  0  0  0  0  0  0  0  0  0  0  0
    3.3001   -2.0478    0.0000 C   0  0  0  0  0  0  0  0  0  0  0  0
    4.1251   -2.8728    0.0000 C   0  0  0  0  0  0  0  0  0  0  0  0
    4.9501   -2.0478    0.0000 C   0  0  0  0  0  0  0  0  0  0  0  0
    4.8396    3.0938    0.0000 C   0  0  0  0  0  0  0  0  0  0  0  0
    6.0771    2.3794    0.0000 C   0  0  0  0  0  0  0  0  0  0  0  0
    2.8876   -2.7622    0.0000 C   0  0  0  0  0  0  0  0  0  0  0  0
    4.8396   -3.2853    0.0000 C   0  0  0  0  0  0  0  0  0  0  0  0
    2.8876   -1.3332    0.0000 C   0  0  0  0  0  0  0  0  0  0  0  0
    3.4106   -3.2853    0.0000 C   0  0  0  0  0  0  0  0  0  0  0  0
    5.2521    3.8083    0.0000 C   0  0  0  0  0  0  0  0  0  0  0  0
    6.4896    3.0938    0.0000 C   0  0  0  0  0  0  0  0  0  0  0  0
    6.0771    3.8083    0.0000 C   0  0  0  0  0  0  0  0  0  0  0  0
    2.0625   -2.7622    0.0000 C   0  0  0  0  0  0  0  0  0  0  0  0
    4.8396   -4.1103    0.0000 C   0  0  0  0  0  0  0  0  0  0  0  0
    2.0625   -1.3332    0.0000 C   0  0  0  0  0  0  0  0  0  0  0  0
    3.4106   -4.1103    0.0000 C   0  0  0  0  0  0  0  0  0  0  0  0
    6.3573   -1.7996    0.0000 C   0  0  0  0  0  0  0  0  0  0  0  0
    5.8687   -3.1423    0.0000 C   0  0  0  0  0  0  0  0  0  0  0  0
    1.6500   -2.0478    0.0000 C   0  0  0  0  0  0  0  0  0  0  0  0
    4.1251   -4.5228    0.0000 C   0  0  0  0  0  0  0  0  0  0  0  0
  1 26  1  0
  2  6  1  0
  3 17  2  0
  4  9  1  0
  4 10  1  0
  4 11  1  0
  5 17  1  0
  5 31  1  0
  5 32  1  0
  6  7  1  0
  6  8  1  0
  6 14  1  0
  7  9  1  0
  8 10  1  0
 11 12  1  0
 12 13  1  0
 13 15  1  0
 13 16  1  0
 13 17  1  0
 14 18  2  0
 14 19  1  0
 15 20  2  0
 15 22  1  0
 16 21  2  0
 16 23  1  0
 18 24  1  0
 19 25  2  0
 20 27  1  0
 21 28  1  0
 22 29  2  0
 23 30  2  0
 24 26  2  0
 25 26  1  0
 27 33  2  0
 28 34  2  0
 29 33  1  0
 30 34  1  0
M  END
$$$$
