854
     RDKit          2D

 19 22  0  0  1  0  0  0  0  0999 V2000
    2.0103   -0.3755    0.0000 O   0  0  0  0  0  0  0  0  0  0  0  0
    4.9304    0.6944    0.0000 N   0  0  0  0  0  0  0  0  0  0  0  0
    4.8064   -0.3564    0.0000 C   0  0  0  0  0  0  0  0  0  0  0  0
    5.4924    0.0397    0.0000 C   0  0  0  0  0  0  0  0  0  0  0  0
    5.4924    0.8317    0.0000 C   0  0  0  0  0  0  0  0  0  0  0  0
    4.6456   -0.0634    0.0000 C   0  0  0  0  0  0  0  0  0  0  0  0
    4.7937   -1.1813    0.0000 C   0  0  0  0  0  0  0  0  0  0  0  0
    6.2132   -0.3618    0.0000 C   0  0  0  0  0  0  0  0  0  0  0  0
    4.1204    0.0397    0.0000 C   0  0  0  0  0  0  0  0  0  0  0  0
    4.8064    1.2278    0.0000 C   0  0  0  0  0  0  0  0  0  0  0  0
    4.5792    0.3878    0.0000 C   0  0  0  0  0  0  0  0  0  0  0  0
    5.5050   -1.5993    0.0000 C   0  0  0  0  0  0  0  0  0  0  0  0
    6.2195   -1.1868    0.0000 C   0  0  0  0  0  0  0  0  0  0  0  0
    4.1204    0.8317    0.0000 C   0  0  0  0  0  0  0  0  0  0  0  0
    3.4124   -0.3839    0.0000 C   0  0  0  0  0  0  0  0  0  0  0  0
    4.4930    1.1438    0.0000 C   0  0  0  0  0  0  0  0  0  0  0  0
    3.4124    1.2552    0.0000 C   0  0  0  0  0  0  0  0  0  0  0  0
    2.6947    0.0232    0.0000 C   0  0  0  0  0  0  0  0  0  0  0  0
    2.6947    0.8483    0.0000 C   0  0  0  0  0  0  0  0  0  0  0  0
  1 18  1  0
  5  2  1  0
  2 11  1  0
  2 16  1  0
  3  4  1  0
  3  6  1  1
  3  7  1  0
  3  9  1  0
  4  5  1  0
  4  8  1  6
  5 10  1  6
  6 11  1  0
  7 12  1  0
  8 13  1  0
  9 14  2  0
  9 15  1  0
 10 14  1  0
 12 13  1  0
 14 17  1  0
 15 18  2  0
 17 19  2  0
 18 19  1  0
M  END
$$$$
