
     RDKit          2D

 58 62  0  0  0  0  0  0  0  0999 V2000
   -0.1733    0.3672    0.0000 C   0  0  0  0  0  0  0  0  0  0  0  0
    0.2372    1.0790    0.0000 C   0  0  0  0  0  0  0  0  0  0  0  0
   -1.0722    1.3528    0.0000 C   0  0  0  0  0  0  0  0  0  0  0  0
   -0.9764    0.5406    0.0000 O   0  0  0  0  0  0  0  0  0  0  0  0
   -0.3194    1.6903    0.0000 N   0  0  0  0  0  0  0  0  0  0  0  0
    4.0880   -0.4448    0.0000 C   0  0  0  0  0  0  0  0  0  0  0  0
    0.8439    1.2934    0.0000 C   0  0  0  0  0  0  0  0  0  0  0  0
    0.5292   -1.6995    0.0000 C   0  0  0  0  0  0  0  0  0  0  0  0
    1.9528   -1.6904    0.0000 C   0  0  0  0  0  0  0  0  0  0  0  0
    1.2409   -2.1147    0.0000 C   0  0  0  0  0  0  0  0  0  0  0  0
    4.7998   -0.8509    0.0000 C   0  0  0  0  0  0  0  0  0  0  0  0
    2.6645   -0.4540    0.0000 C   0  0  0  0  0  0  0  0  0  0  0  0
    1.9528   -0.8691    0.0000 C   0  0  0  0  0  0  0  0  0  0  0  0
   -3.9877    1.4486    0.0000 N   0  0  0  0  0  0  0  0  0  0  0  0
    1.2638    2.0052    0.0000 C   0  0  0  0  0  0  0  0  0  0  0  0
    0.5292   -0.8691    0.0000 O   0  0  0  0  0  0  0  0  0  0  0  0
   -4.4713    2.1284    0.0000 C   0  0  0  0  0  0  0  0  0  0  0  0
    3.3854   -0.8555    0.0000 O   0  0  0  0  0  0  0  0  0  0  0  0
    5.5115   -0.4312    0.0000 C   0  0  0  0  0  0  0  0  0  0  0  0
    2.6599    0.3763    0.0000 C   0  0  0  0  0  0  0  0  0  0  0  0
   -0.1825   -0.4586    0.0000 C   0  0  0  0  0  0  0  0  0  0  0  0
    4.0743    0.3763    0.0000 O   0  0  0  0  0  0  0  0  0  0  0  0
   -3.9877    2.7900    0.0000 C   0  0  0  0  0  0  0  0  0  0  0  0
   -3.1938    2.5299    0.0000 N   0  0  0  0  0  0  0  0  0  0  0  0
   -3.1938    1.7040    0.0000 C   0  0  0  0  0  0  0  0  0  0  0  0
    1.9390    1.6083    0.0000 C   0  0  0  0  0  0  0  0  0  0  0  0
    1.9390    0.7869    0.0000 C   0  0  0  0  0  0  0  0  0  0  0  0
    5.5069    0.3900    0.0000 C   0  0  0  0  0  0  0  0  0  0  0  0
   -5.3018    2.1284    0.0000 C   0  0  0  0  0  0  0  0  0  0  0  0
   -1.7884    1.7589    0.0000 O   0  0  0  0  0  0  0  0  0  0  0  0
    6.2233   -0.8417    0.0000 N   0  0  0  0  0  0  0  0  0  0  0  0
   -0.1871   -2.1102    0.0000 O   0  0  0  0  0  0  0  0  0  0  0  0
    2.6737   -2.1011    0.0000 O   0  0  0  0  0  0  0  0  0  0  0  0
    4.7860    0.7915    0.0000 C   0  0  0  0  0  0  0  0  0  0  0  0
    1.2683    2.8311    0.0000 O   0  0  0  0  0  0  0  0  0  0  0  0
   -6.5336    1.4166    0.0000 N   0  0  0  0  0  0  0  0  0  0  0  0
    4.8089   -1.6767    0.0000 O   0  0  0  0  0  0  0  0  0  0  0  0
   -0.7618   -0.2122    0.0000 C   0  0  0  0  0  0  0  0  0  0  0  0
    3.0706    1.0880    0.0000 O   0  0  0  0  0  0  0  0  0  0  0  0
   -0.3238    2.5163    0.0000 C   0  0  0  0  0  0  0  0  0  0  0  0
    1.2546    0.5817    0.0000 C   0  0  0  0  0  0  0  0  0  0  0  0
    1.2409   -2.9360    0.0000 C   0  0  0  0  0  0  0  0  0  0  0  0
    1.2364   -0.4586    0.0000 C   0  0  0  0  0  0  0  0  0  0  0  0
   -5.7124    1.4166    0.0000 C   0  0  0  0  0  0  0  0  0  0  0  0
    3.4857    0.3763    0.0000 C   0  0  0  0  0  0  0  0  0  0  0  0
   -2.4729    2.9360    0.0000 C   0  0  0  0  0  0  0  0  0  0  0  0
   -0.8942   -0.8691    0.0000 C   0  0  0  0  0  0  0  0  0  0  0  0
    2.6508    2.0234    0.0000 C   0  0  0  0  0  0  0  0  0  0  0  0
   -5.7032    2.8401    0.0000 C   0  0  0  0  0  0  0  0  0  0  0  0
   -6.9443    2.1330    0.0000 C   0  0  0  0  0  0  0  0  0  0  0  0
    6.2324   -1.6721    0.0000 C   0  0  0  0  0  0  0  0  0  0  0  0
    6.9443   -0.4265    0.0000 C   0  0  0  0  0  0  0  0  0  0  0  0
    4.7860    1.6219    0.0000 C   0  0  0  0  0  0  0  0  0  0  0  0
    3.8964    1.0880    0.0000 C   0  0  0  0  0  0  0  0  0  0  0  0
   -1.0449    2.9269    0.0000 C   0  0  0  0  0  0  0  0  0  0  0  0
   -1.7567    2.5253    0.0000 C   0  0  0  0  0  0  0  0  0  0  0  0
   -6.5245    2.8447    0.0000 C   0  0  0  0  0  0  0  0  0  0  0  0
   -1.6106   -0.4586    0.0000 C   0  0  0  0  0  0  0  0  0  0  0  0
  2  1  1  0
  3  4  1  0
  4  1  1  0
  2  5  1  6
  6 18  1  6
  7  2  1  0
  8 16  1  0
  9 10  1  0
 10  8  1  0
 11  6  1  0
 12 13  1  0
 13  9  1  0
 14 25  2  0
 15  7  1  0
 16 21  1  0
 17 23  2  0
 12 18  1  6
 19 11  1  0
 20 27  1  0
 21  1  1  0
 22  6  1  0
 23 24  1  0
 24 46  1  0
 25 24  1  0
 26 15  1  0
 27 26  1  0
 28 34  1  0
 29 17  1  0
 30  3  2  0
 19 31  1  6
 32  8  2  0
 33  9  2  0
 34 22  1  0
 35 15  2  0
 36 44  2  0
 11 37  1  1
  1 38  1  6
 20 39  1  0
 40  5  1  0
  7 41  1  6
 10 42  1  1
 13 43  1  6
 44 29  1  0
 20 45  1  6
 46 56  1  0
 21 47  1  6
 26 48  1  6
 49 29  2  0
 50 57  2  0
 51 31  1  0
 52 31  1  0
 34 53  1  6
 54 39  1  0
 55 40  1  0
 56 55  1  0
 57 49  1  0
 58 47  1  0
  5  3  1  0
 12 20  1  0
 17 14  1  0
 19 28  1  0
 36 50  1  0
M  END
$$$$
