
     RDKit          2D

 32 35  0  0  1  0  0  0  0  0999 V2000
   -1.4289   -0.3397    0.0000 C   0  0  0  0  0  0  0  0  0  0  0  0
   -1.4289    0.4853    0.0000 C   0  0  0  0  0  0  0  0  0  0  0  0
    1.4289   -0.3397    0.0000 C   0  0  0  0  0  0  0  0  0  0  0  0
    1.4289    0.4853    0.0000 C   0  0  0  0  0  0  0  0  0  0  0  0
    0.7145   -0.7522    0.0000 C   0  0  0  0  0  0  0  0  0  0  0  0
    0.7145    0.8978    0.0000 C   0  0  0  0  0  0  0  0  0  0  0  0
    0.0000   -0.3397    0.0000 C   0  0  0  0  0  0  0  0  0  0  0  0
    0.0000    0.4853    0.0000 C   0  0  0  0  0  0  0  0  0  0  0  0
   -0.7145    0.8978    0.0000 C   0  0  0  0  0  0  0  0  0  0  0  0
   -0.7145   -0.7522    0.0000 C   0  0  0  0  0  0  0  0  0  0  0  0
    2.1434   -0.7522    0.0000 C   0  0  0  0  0  0  0  0  0  0  0  0
    2.1434    0.8978    0.0000 C   0  0  0  0  0  0  0  0  0  0  0  0
    1.4289    1.3103    0.0000 O   0  0  0  0  0  0  0  0  0  0  0  0
    2.8579   -0.3397    0.0000 C   0  0  0  0  0  0  0  0  0  0  0  0
    2.1434   -1.5772    0.0000 N   0  0  0  0  0  0  0  0  0  0  0  0
    0.7145    1.7228    0.0000 O   0  0  0  0  0  0  0  0  0  0  0  0
    2.8579    0.4853    0.0000 C   0  0  0  0  0  0  0  0  0  0  0  0
    2.1434    1.7228    0.0000 O   0  0  0  0  0  0  0  0  0  0  0  0
    3.5724   -0.7522    0.0000 O   0  0  0  0  0  0  0  0  0  0  0  0
    2.8579   -1.9897    0.0000 C   0  0  0  0  0  0  0  0  0  0  0  0
    1.4289   -1.9897    0.0000 C   0  0  0  0  0  0  0  0  0  0  0  0
    3.5724    0.8978    0.0000 C   0  0  0  0  0  0  0  0  0  0  0  0
   -0.7145    1.7228    0.0000 O   0  0  0  0  0  0  0  0  0  0  0  0
    4.2868    0.4853    0.0000 N   0  0  0  0  0  0  0  0  0  0  0  0
    3.5724    1.7228    0.0000 O   0  0  0  0  0  0  0  0  0  0  0  0
   -2.1434   -0.7522    0.0000 C   0  0  0  0  0  0  0  0  0  0  0  0
   -2.1434    0.8978    0.0000 C   0  0  0  0  0  0  0  0  0  0  0  0
   -2.8579   -0.3397    0.0000 C   0  0  0  0  0  0  0  0  0  0  0  0
   -2.8579    0.4853    0.0000 C   0  0  0  0  0  0  0  0  0  0  0  0
   -2.1434    1.7228    0.0000 O   0  0  0  0  0  0  0  0  0  0  0  0
   -1.4289   -1.1647    0.0000 O   0  0  0  0  0  0  0  0  0  0  0  0
   -0.7145   -1.5772    0.0000 C   0  0  0  0  0  0  0  0  0  0  0  0
  1 26  1  0
  1  2  2  0
  2 27  1  0
  3 11  1  0
  3  4  1  0
  4 12  1  0
  4 13  1  1
  3  5  1  6
  4  6  1  0
  6 16  1  0
  7  5  1  1
  7  8  1  0
  6  8  2  0
  8  9  1  0
  9  2  1  0
  9 23  2  0
  7 10  1  0
 10  1  1  0
 10 32  1  1
 10 31  1  0
 11 14  1  0
 11 15  1  1
 12 17  1  0
 12 18  2  0
 14 19  1  0
 14 17  2  0
 15 20  1  0
 15 21  1  0
 17 22  1  0
 22 24  1  0
 22 25  2  0
 26 28  2  0
 27 29  2  0
 27 30  1  0
 28 29  1  0
M  END
$$$$
