
     RDKit          2D

 20 21  0  0  0  0  0  0  0  0999 V2000
   -2.4455   -0.9723    0.0000 C   0  0  0  0  0  0  0  0  0  0  0  0
   -3.1600   -1.3848    0.0000 C   0  0  0  0  0  0  0  0  0  0  0  0
   -3.1600   -2.2098    0.0000 C   0  0  0  0  0  0  0  0  0  0  0  0
   -2.4455   -2.6223    0.0000 C   0  0  0  0  0  0  0  0  0  0  0  0
   -1.7311   -2.2098    0.0000 C   0  0  0  0  0  0  0  0  0  0  0  0
   -1.7311   -1.3848    0.0000 C   0  0  0  0  0  0  0  0  0  0  0  0
   -3.8745   -2.6223    0.0000 O   0  0  0  0  0  0  0  0  0  0  0  0
   -1.0166   -0.9723    0.0000 C   0  0  0  0  0  0  0  0  0  0  0  0
   -0.3021   -1.3848    0.0000 C   0  0  0  0  0  0  0  0  0  0  0  0
    0.4123   -0.9723    0.0000 C   0  0  0  0  0  0  0  0  0  0  0  0
   -1.0166   -0.1473    0.0000 C   0  0  0  0  0  0  0  0  0  0  0  0
   -0.3021   -2.2098    0.0000 C   0  0  0  0  0  0  0  0  0  0  0  0
    1.1268    0.2652    0.0000 C   0  0  0  0  0  0  0  0  0  0  0  0
    0.4123   -0.1473    0.0000 C   0  0  0  0  0  0  0  0  0  0  0  0
    1.1268   -1.3848    0.0000 C   0  0  0  0  0  0  0  0  0  0  0  0
    1.8413   -0.9723    0.0000 C   0  0  0  0  0  0  0  0  0  0  0  0
    1.8413   -0.1473    0.0000 C   0  0  0  0  0  0  0  0  0  0  0  0
   -1.7311    0.2652    0.0000 C   0  0  0  0  0  0  0  0  0  0  0  0
    0.4123   -2.6223    0.0000 C   0  0  0  0  0  0  0  0  0  0  0  0
    2.5558    0.2652    0.0000 O   0  0  0  0  0  0  0  0  0  0  0  0
  1  2  2  0
  1  6  1  0
  2  3  1  0
  3  4  2  0
  4  5  1  0
  5  6  2  0
  3  7  1  0
  6  8  1  0
  8  9  1  0
  9 10  1  0
  8 11  2  3
  9 12  2  3
 14 10  1  0
 10 15  2  0
 13 14  2  0
 13 17  1  0
 15 16  1  0
 16 17  2  0
 11 18  1  0
 12 19  1  0
 17 20  1  0
M  END
$$$$
