3290
     RDKit          2D

 22 24  0  0  1  0  0  0  0  0999 V2000
    3.6958   -2.3625    0.0000 S   0  0  0  0  0  0  0  0  0  0  0  0
    4.3818    1.2018    0.0000 N   0  0  0  0  0  0  0  0  0  0  0  0
    3.6958   -0.7783    0.0000 N   0  0  0  0  0  0  0  0  0  0  0  0
    4.3818    0.4098    0.0000 C   0  0  0  0  0  0  0  0  0  0  0  0
    3.6958    0.0137    0.0000 C   0  0  0  0  0  0  0  0  0  0  0  0
    5.0677    0.0137    0.0000 C   0  0  0  0  0  0  0  0  0  0  0  0
    5.0677    1.5979    0.0000 C   0  0  0  0  0  0  0  0  0  0  0  0
    3.6958    1.5979    0.0000 C   0  0  0  0  0  0  0  0  0  0  0  0
    4.3818   -1.1744    0.0000 C   0  0  0  0  0  0  0  0  0  0  0  0
    3.0099   -1.1744    0.0000 C   0  0  0  0  0  0  0  0  0  0  0  0
    4.3818   -1.9664    0.0000 C   0  0  0  0  0  0  0  0  0  0  0  0
    3.0099   -1.9664    0.0000 C   0  0  0  0  0  0  0  0  0  0  0  0
    5.0677    2.3899    0.0000 C   0  0  0  0  0  0  0  0  0  0  0  0
    3.6958    2.3899    0.0000 C   0  0  0  0  0  0  0  0  0  0  0  0
    2.3018   -0.7509    0.0000 C   0  0  0  0  0  0  0  0  0  0  0  0
    5.0899   -0.7509    0.0000 C   0  0  0  0  0  0  0  0  0  0  0  0
    5.0899   -2.3899    0.0000 C   0  0  0  0  0  0  0  0  0  0  0  0
    2.3018   -2.3899    0.0000 C   0  0  0  0  0  0  0  0  0  0  0  0
    1.5841   -1.1580    0.0000 C   0  0  0  0  0  0  0  0  0  0  0  0
    5.8075   -1.1580    0.0000 C   0  0  0  0  0  0  0  0  0  0  0  0
    1.5841   -1.9830    0.0000 C   0  0  0  0  0  0  0  0  0  0  0  0
    5.8075   -1.9830    0.0000 C   0  0  0  0  0  0  0  0  0  0  0  0
  1 11  1  0
  1 12  1  0
  2  4  1  0
  2  7  1  0
  2  8  1  0
  3  5  1  0
  3  9  1  0
  3 10  1  0
  4  5  1  0
  4  6  1  0
  7 13  1  0
  8 14  1  0
  9 11  2  0
  9 16  1  0
 10 12  2  0
 10 15  1  0
 11 17  1  0
 12 18  1  0
 15 19  2  0
 16 20  2  0
 17 22  2  0
 18 21  2  0
 19 21  1  0
 20 22  1  0
M  END
$$$$
