863
     RDKit          2D

 21 21  0  0  0  0  0  0  0  0999 V2000
    6.6282   -0.5856    0.0000 S   0  0  0  0  0  0  0  0  0  0  0  0
    8.6934   -1.3677    0.0000 O   0  0  0  0  0  0  0  0  0  0  0  0
    1.6501    0.0507    0.0000 O   0  0  0  0  0  0  0  0  0  0  0  0
    2.6063    1.1127    0.0000 O   0  0  0  0  0  0  0  0  0  0  0  0
   10.7587   -0.5856    0.0000 N   0  0  0  0  0  0  0  0  0  0  0  0
    4.4457   -0.5435    0.0000 N   0  0  0  0  0  0  0  0  0  0  0  0
    4.0041    0.8156    0.0000 N   0  0  0  0  0  0  0  0  0  0  0  0
    2.4348    0.3057    0.0000 N   0  0  0  0  0  0  0  0  0  0  0  0
   10.1456   -1.1377    0.0000 C   0  0  0  0  0  0  0  0  0  0  0  0
    9.3609   -0.8827    0.0000 C   0  0  0  0  0  0  0  0  0  0  0  0
    8.0259   -0.8827    0.0000 C   0  0  0  0  0  0  0  0  0  0  0  0
    7.2412   -1.1377    0.0000 C   0  0  0  0  0  0  0  0  0  0  0  0
    9.1059   -0.0981    0.0000 C   0  0  0  0  0  0  0  0  0  0  0  0
    8.2809   -0.0981    0.0000 C   0  0  0  0  0  0  0  0  0  0  0  0
    5.8435   -0.8406    0.0000 C   0  0  0  0  0  0  0  0  0  0  0  0
    5.2304   -0.2885    0.0000 C   0  0  0  0  0  0  0  0  0  0  0  0
   10.5871    0.2214    0.0000 C   0  0  0  0  0  0  0  0  0  0  0  0
   11.5434   -0.8406    0.0000 C   0  0  0  0  0  0  0  0  0  0  0  0
    3.8326    0.0086    0.0000 C   0  0  0  0  0  0  0  0  0  0  0  0
    3.0479   -0.2464    0.0000 C   0  0  0  0  0  0  0  0  0  0  0  0
    3.3909    1.3677    0.0000 C   0  0  0  0  0  0  0  0  0  0  0  0
  1 12  1  0
  1 15  1  0
  2 10  1  0
  2 11  1  0
  3  8  1  0
  4  8  2  0
  5  9  1  0
  5 17  1  0
  5 18  1  0
  6 16  1  0
  6 19  1  0
  7 19  1  0
  7 21  1  0
  8 20  1  0
  9 10  1  0
 10 13  2  0
 11 12  1  0
 11 14  2  0
 13 14  1  0
 15 16  1  0
 19 20  2  0
M  CHG  2   3  -1   8   1
M  END
$$$$
