
     RDKit          2D

 50 53  0  0  1  0  0  0  0  0999 V2000
   10.4027    0.0393    0.0000 S   0  0  0  0  0  0  0  0  0  0  0  0
    7.4051   -1.1082    0.0000 S   0  0  0  0  0  0  0  0  0  0  0  0
    2.3645    0.2063    0.0000 O   0  0  0  0  0  0  0  0  0  0  0  0
    5.2224    0.2063    0.0000 O   0  0  0  0  0  0  0  0  0  0  0  0
    5.2224   -1.4438    0.0000 O   0  0  0  0  0  0  0  0  0  0  0  0
    4.5080   -0.2063    0.0000 O   0  0  0  0  0  0  0  0  0  0  0  0
    7.3659    2.2688    0.0000 O   0  0  0  0  0  0  0  0  0  0  0  0
    4.5080    1.4438    0.0000 N   0  0  0  0  0  0  0  0  0  0  0  0
    3.7935   -1.4438    0.0000 N   0  0  0  0  0  0  0  0  0  0  0  0
    6.6515    1.0313    0.0000 N   0  0  0  0  0  0  0  0  0  0  0  0
    8.0804    1.0313    0.0000 N   0  0  0  0  0  0  0  0  0  0  0  0
   10.2631    1.3668    0.0000 N   0  0  0  0  0  0  0  0  0  0  0  0
    7.5447   -2.4358    0.0000 N   0  0  0  0  0  0  0  0  0  0  0  0
    3.7935    1.0313    0.0000 C   0  0  0  0  0  0  0  0  0  0  0  0
    3.7935    0.2063    0.0000 C   0  0  0  0  0  0  0  0  0  0  0  0
    3.0791   -0.2063    0.0000 C   0  0  0  0  0  0  0  0  0  0  0  0
    3.0791   -1.0313    0.0000 C   0  0  0  0  0  0  0  0  0  0  0  0
    3.0791    1.4438    0.0000 C   0  0  0  0  0  0  0  0  0  0  0  0
    2.3645   -1.4438    0.0000 C   0  0  0  0  0  0  0  0  0  0  0  0
    5.9370    1.4438    0.0000 C   0  0  0  0  0  0  0  0  0  0  0  0
    5.9370    2.2688    0.0000 C   0  0  0  0  0  0  0  0  0  0  0  0
    5.2224    1.0313    0.0000 C   0  0  0  0  0  0  0  0  0  0  0  0
    3.0791    2.2688    0.0000 C   0  0  0  0  0  0  0  0  0  0  0  0
    2.3645   -2.2688    0.0000 C   0  0  0  0  0  0  0  0  0  0  0  0
    5.2224    2.6813    0.0000 C   0  0  0  0  0  0  0  0  0  0  0  0
    6.6515    2.6813    0.0000 C   0  0  0  0  0  0  0  0  0  0  0  0
    2.3645    2.6813    0.0000 C   0  0  0  0  0  0  0  0  0  0  0  0
    3.7935    2.6813    0.0000 C   0  0  0  0  0  0  0  0  0  0  0  0
    4.5080   -1.0313    0.0000 C   0  0  0  0  0  0  0  0  0  0  0  0
    3.0791   -2.6813    0.0000 C   0  0  0  0  0  0  0  0  0  0  0  0
    1.6500   -2.6813    0.0000 C   0  0  0  0  0  0  0  0  0  0  0  0
    7.3659    1.4438    0.0000 C   0  0  0  0  0  0  0  0  0  0  0  0
    2.3645    3.5063    0.0000 C   0  0  0  0  0  0  0  0  0  0  0  0
    3.7935    3.5063    0.0000 C   0  0  0  0  0  0  0  0  0  0  0  0
    3.0791   -3.5063    0.0000 C   0  0  0  0  0  0  0  0  0  0  0  0
    1.6500   -3.5063    0.0000 C   0  0  0  0  0  0  0  0  0  0  0  0
    3.0791    3.9188    0.0000 C   0  0  0  0  0  0  0  0  0  0  0  0
    2.3645   -3.9188    0.0000 C   0  0  0  0  0  0  0  0  0  0  0  0
    8.7949    1.4438    0.0000 C   0  0  0  0  0  0  0  0  0  0  0  0
    8.0804    0.2063    0.0000 C   0  0  0  0  0  0  0  0  0  0  0  0
    5.9370   -1.0313    0.0000 C   0  0  0  0  0  0  0  0  0  0  0  0
    9.5094    1.0313    0.0000 C   0  0  0  0  0  0  0  0  0  0  0  0
    6.6515   -1.4438    0.0000 C   0  0  0  0  0  0  0  0  0  0  0  0
   10.8152    0.7537    0.0000 C   0  0  0  0  0  0  0  0  0  0  0  0
    9.5956    0.2108    0.0000 C   0  0  0  0  0  0  0  0  0  0  0  0
   11.6356    0.8400    0.0000 C   0  0  0  0  0  0  0  0  0  0  0  0
   12.1206    0.1725    0.0000 C   0  0  0  0  0  0  0  0  0  0  0  0
   11.9712    1.5937    0.0000 C   0  0  0  0  0  0  0  0  0  0  0  0
    6.7377   -2.2643    0.0000 C   0  0  0  0  0  0  0  0  0  0  0  0
    7.9572   -1.7213    0.0000 C   0  0  0  0  0  0  0  0  0  0  0  0
  1 44  1  0
  1 45  1  0
  2 43  1  0
  2 50  1  0
 16  3  1  1
  4 22  2  0
  5 29  1  0
  5 41  1  0
  6 29  2  0
  7 32  2  0
 14  8  1  0
  8 22  1  0
 17  9  1  0
  9 29  1  0
 20 10  1  6
 10 32  1  0
 11 32  1  0
 11 39  1  0
 11 40  1  0
 12 42  1  0
 12 44  2  0
 13 49  1  0
 13 50  2  0
 14 15  1  6
 14 18  1  0
 15 16  1  0
 16 17  1  0
 17 19  1  1
 18 23  1  0
 19 24  1  0
 20 21  1  0
 20 22  1  0
 21 25  1  0
 21 26  1  0
 23 27  2  0
 23 28  1  0
 24 30  2  0
 24 31  1  0
 27 33  1  0
 28 34  2  0
 30 35  1  0
 31 36  2  0
 33 37  2  0
 34 37  1  0
 35 38  2  0
 36 38  1  0
 39 42  1  0
 41 43  1  0
 42 45  2  0
 43 49  2  0
 44 46  1  0
 46 47  1  0
 46 48  1  0
M  END
$$$$
