211
     RDKit          2D

 18 18  0  0  1  0  0  0  0  0999 V2000
    3.0791    0.3630    0.0000 O   0  0  0  0  0  0  0  0  0  0  0  0
    2.3645   -0.8745    0.0000 O   0  0  0  0  0  0  0  0  0  0  0  0
    5.2224   -2.5246    0.0000 O   0  0  0  0  0  0  0  0  0  0  0  0
    5.9370    1.1880    0.0000 O   0  0  0  0  0  0  0  0  0  0  0  0
    4.5080    1.1880    0.0000 N   0  0  0  0  0  0  0  0  0  0  0  0
    5.9370    2.8381    0.0000 N   0  0  0  0  0  0  0  0  0  0  0  0
    3.7935   -0.0495    0.0000 C   0  0  0  0  0  0  0  0  0  0  0  0
    3.7935   -0.8745    0.0000 C   0  0  0  0  0  0  0  0  0  0  0  0
    4.5080    0.3630    0.0000 C   0  0  0  0  0  0  0  0  0  0  0  0
    3.0791   -1.2870    0.0000 C   0  0  0  0  0  0  0  0  0  0  0  0
    4.5080   -1.2870    0.0000 C   0  0  0  0  0  0  0  0  0  0  0  0
    4.5080   -2.1120    0.0000 C   0  0  0  0  0  0  0  0  0  0  0  0
    3.0791   -2.1120    0.0000 C   0  0  0  0  0  0  0  0  0  0  0  0
    3.7935   -2.5246    0.0000 C   0  0  0  0  0  0  0  0  0  0  0  0
    5.2224    1.6005    0.0000 C   0  0  0  0  0  0  0  0  0  0  0  0
    5.2224    2.4256    0.0000 C   0  0  0  0  0  0  0  0  0  0  0  0
    1.6500   -1.2870    0.0000 C   0  0  0  0  0  0  0  0  0  0  0  0
    5.2224   -3.3496    0.0000 C   0  0  0  0  0  0  0  0  0  0  0  0
  1  7  1  0
  2 10  1  0
  2 17  1  0
  3 12  1  0
  3 18  1  0
  4 15  2  0
  5  9  1  0
  5 15  1  0
  6 16  1  0
  7  8  1  0
  7  9  1  0
  8 10  2  0
  8 11  1  0
 10 13  1  0
 11 12  2  0
 12 14  1  0
 13 14  2  0
 15 16  1  0
M  END
$$$$
