 
     RDKit          2D

 33 36  0  0  1  0  0  0  0  0999 V2000
   14.0029  -10.2981    0.0000 C   0  0  0  0  0  0  0  0  0  0  0  0
   13.9889  -11.1212    0.0000 C   0  0  0  0  0  0  0  0  0  0  0  0
   13.2949   -9.8795    0.0000 C   0  0  0  0  0  0  0  0  0  0  0  0
   14.7214   -9.8934    0.0000 C   0  0  0  0  0  0  0  0  0  0  0  0
   13.2774  -11.5258    0.0000 C   0  0  0  0  0  0  0  0  0  0  0  0
   14.6970  -11.5433    0.0000 C   0  0  0  0  0  0  0  0  0  0  0  0
   13.9819  -11.9409    0.0000 O   0  0  0  0  0  0  0  0  0  0  0  0
   12.5729  -10.2841    0.0000 C   0  0  0  0  0  0  0  0  0  0  0  0
   13.2879   -8.8817    0.0000 O   0  0  0  0  0  0  0  0  0  0  0  0
   15.4259  -10.3156    0.0000 C   0  0  0  0  0  0  0  0  0  0  0  0
   14.7319   -9.0703    0.0000 N   0  0  0  0  0  0  0  0  0  0  0  0
   12.5659  -11.1072    0.0000 C   0  0  0  0  0  0  0  0  0  0  0  0
   13.3124  -12.3524    0.0000 O   0  0  0  0  0  0  0  0  0  0  0  0
   15.4154  -11.1421    0.0000 C   0  0  0  0  0  0  0  0  0  0  0  0
   14.6830  -12.3663    0.0000 O   0  0  0  0  0  0  0  0  0  0  0  0
   11.8614   -9.8655    0.0000 C   0  0  0  0  0  0  0  0  0  0  0  0
   16.1514   -9.9144    0.0000 O   0  0  0  0  0  0  0  0  0  0  0  0
   15.4538   -8.6657    0.0000 C   0  0  0  0  0  0  0  0  0  0  0  0
   14.7389   -8.0728    0.0000 C   0  0  0  0  0  0  0  0  0  0  0  0
   11.8544  -11.5188    0.0000 C   0  0  0  0  0  0  0  0  0  0  0  0
   16.1270  -11.5641    0.0000 C   0  0  0  0  0  0  0  0  0  0  0  0
   11.1429  -10.2771    0.0000 C   0  0  0  0  0  0  0  0  0  0  0  0
   11.8649   -8.7910    0.0000 C   0  0  0  0  0  0  0  0  0  0  0  0
   11.1393  -11.1037    0.0000 C   0  0  0  0  0  0  0  0  0  0  0  0
   11.8509  -12.3454    0.0000 O   0  0  0  0  0  0  0  0  0  0  0  0
   16.8454  -11.1630    0.0000 N   0  0  0  0  0  0  0  0  0  0  0  0
   16.1130  -12.3907    0.0000 O   0  0  0  0  0  0  0  0  0  0  0  0
   10.4279   -9.8655    0.0000 C   0  0  0  0  0  0  0  0  0  0  0  0
   10.4279  -11.5154    0.0000 C   0  0  0  0  0  0  0  0  0  0  0  0
    9.7129  -10.2771    0.0000 C   0  0  0  0  0  0  0  0  0  0  0  0
    9.7129  -11.1037    0.0000 C   0  0  0  0  0  0  0  0  0  0  0  0
   10.4313  -12.3419    0.0000 O   0  0  0  0  0  0  0  0  0  0  0  0
   11.1352   -9.4462    0.0000 O   0  0  0  0  0  0  0  0  0  0  0  0
  1  2  1  0
  1  3  1  0
  1  4  1  1
  2  5  1  0
  2  6  1  0
  2  7  1  6
  3  8  1  0
  3  9  1  6
  4 10  1  0
  4 11  1  6
  5 12  2  0
  5 13  1  0
  6 14  1  0
  6 15  2  0
  8 16  1  0
 10 17  1  0
 11 18  1  0
 11 19  1  0
 12 20  1  0
 14 21  1  0
 16 22  1  0
 16 23  1  6
 20 24  1  0
 20 25  2  0
 21 26  1  0
 21 27  2  0
 22 28  2  0
 24 29  2  0
 28 30  1  0
 29 31  1  0
 29 32  1  0
  8 12  1  1
 10 14  2  0
 22 24  1  0
 30 31  2  0
 16 33  1  0
M  END
$$$$
