
     RDKit          2D

 35 34  0  0  0  0  0  0  0  0999 V2000
    4.0154    2.0625    0.0000 O   0  0  0  0  0  0  0  0  0  0  0  0
    4.7299    3.3001    0.0000 O   0  0  0  0  0  0  0  0  0  0  0  0
    9.7313    1.2375    0.0000 O   0  0  0  0  0  0  0  0  0  0  0  0
    4.0154    3.7126    0.0000 O   0  0  0  0  0  0  0  0  0  0  0  0
    7.5879    0.0000    0.0000 O   0  0  0  0  0  0  0  0  0  0  0  0
    6.8734    6.1876    0.0000 O   0  0  0  0  0  0  0  0  0  0  0  0
    6.8734    1.2375    0.0000 O   0  0  0  0  0  0  0  0  0  0  0  0
    5.4444    6.1876    0.0000 O   0  0  0  0  0  0  0  0  0  0  0  0
   12.5893    2.0625    0.0000 O   0  0  0  0  0  0  0  0  0  0  0  0
    1.1575    4.5376    0.0000 O   0  0  0  0  0  0  0  0  0  0  0  0
    6.1588    2.4751    0.0000 N   0  0  0  0  0  0  0  0  0  0  0  0
    8.3023    2.0625    0.0000 N   0  0  0  0  0  0  0  0  0  0  0  0
    5.4444    4.5376    0.0000 N   0  0  0  0  0  0  0  0  0  0  0  0
   10.4458    2.4751    0.0000 N   0  0  0  0  0  0  0  0  0  0  0  0
    3.3009    4.9501    0.0000 N   0  0  0  0  0  0  0  0  0  0  0  0
    6.8734    2.0625    0.0000 C   0  0  0  0  0  0  0  0  0  0  0  0
    6.1588    3.3001    0.0000 C   0  0  0  0  0  0  0  0  0  0  0  0
    7.5879    2.4751    0.0000 C   0  0  0  0  0  0  0  0  0  0  0  0
    5.4444    3.7126    0.0000 C   0  0  0  0  0  0  0  0  0  0  0  0
    5.4444    2.0625    0.0000 C   0  0  0  0  0  0  0  0  0  0  0  0
    9.0168    2.4751    0.0000 C   0  0  0  0  0  0  0  0  0  0  0  0
    4.7299    4.9501    0.0000 C   0  0  0  0  0  0  0  0  0  0  0  0
    8.3023    1.2375    0.0000 C   0  0  0  0  0  0  0  0  0  0  0  0
    6.1588    4.9501    0.0000 C   0  0  0  0  0  0  0  0  0  0  0  0
    4.7299    2.4751    0.0000 C   0  0  0  0  0  0  0  0  0  0  0  0
    9.7313    2.0625    0.0000 C   0  0  0  0  0  0  0  0  0  0  0  0
    4.0154    4.5376    0.0000 C   0  0  0  0  0  0  0  0  0  0  0  0
    7.5879    0.8250    0.0000 C   0  0  0  0  0  0  0  0  0  0  0  0
    6.1588    5.7751    0.0000 C   0  0  0  0  0  0  0  0  0  0  0  0
   11.1603    2.0625    0.0000 C   0  0  0  0  0  0  0  0  0  0  0  0
    2.5864    4.5376    0.0000 C   0  0  0  0  0  0  0  0  0  0  0  0
   11.8747    2.4751    0.0000 C   0  0  0  0  0  0  0  0  0  0  0  0
    1.8720    4.9501    0.0000 C   0  0  0  0  0  0  0  0  0  0  0  0
   13.3037    2.4751    0.0000 C   0  0  0  0  0  0  0  0  0  0  0  0
    0.4430    4.9501    0.0000 C   0  0  0  0  0  0  0  0  0  0  0  0
  1 25  1  0
  2 25  2  0
  3 26  2  0
  4 27  2  0
  5 28  1  0
  6 29  1  0
  7 28  2  0
  8 29  2  0
  9 32  1  0
  9 34  1  0
 10 33  1  0
 10 35  1  0
 11 16  1  0
 11 17  1  0
 11 20  1  0
 12 18  1  0
 12 21  1  0
 12 23  1  0
 13 19  1  0
 13 22  1  0
 13 24  1  0
 14 26  1  0
 14 30  1  0
 15 27  1  0
 15 31  1  0
 16 18  1  0
 17 19  1  0
 20 25  1  0
 21 26  1  0
 22 27  1  0
 23 28  1  0
 24 29  1  0
 30 32  1  0
 31 33  1  0
M  CHG  3   1  -1   5  -1   6  -1
M  END
$$$$
