966
     RDKit          2D

 39 44  0  0  0  0  0  0  0  0999 V2000
   10.5580    2.7902    0.0000 O   0  0  0  0  0  0  0  0  0  0  0  0
    9.4945    1.8359    0.0000 O   0  0  0  0  0  0  0  0  0  0  0  0
    7.1110   -0.8569    0.0000 N   0  0  0  0  0  0  0  0  0  0  0  0
    7.1110   -2.1848    0.0000 N   0  0  0  0  0  0  0  0  0  0  0  0
    3.4379   -1.0301    0.0000 N   0  0  0  0  0  0  0  0  0  0  0  0
    4.1018    0.1199    0.0000 N   0  0  0  0  0  0  0  0  0  0  0  0
    6.3303   -1.1084    0.0000 C   0  0  0  0  0  0  0  0  0  0  0  0
    7.5925   -1.5209    0.0000 C   0  0  0  0  0  0  0  0  0  0  0  0
    6.3303   -1.9334    0.0000 C   0  0  0  0  0  0  0  0  0  0  0  0
    7.3672   -0.0728    0.0000 C   0  0  0  0  0  0  0  0  0  0  0  0
    8.4175   -1.5209    0.0000 C   0  0  0  0  0  0  0  0  0  0  0  0
    4.9014   -1.1084    0.0000 C   0  0  0  0  0  0  0  0  0  0  0  0
    5.6158   -0.6959    0.0000 C   0  0  0  0  0  0  0  0  0  0  0  0
    5.6158   -2.3459    0.0000 C   0  0  0  0  0  0  0  0  0  0  0  0
    4.9014   -1.9334    0.0000 C   0  0  0  0  0  0  0  0  0  0  0  0
    4.1869   -0.6959    0.0000 C   0  0  0  0  0  0  0  0  0  0  0  0
    8.1745    0.0974    0.0000 C   0  0  0  0  0  0  0  0  0  0  0  0
    8.8300   -2.2354    0.0000 C   0  0  0  0  0  0  0  0  0  0  0  0
    5.6158   -3.1710    0.0000 C   0  0  0  0  0  0  0  0  0  0  0  0
    2.8876   -0.4221    0.0000 C   0  0  0  0  0  0  0  0  0  0  0  0
    3.3001    0.2925    0.0000 C   0  0  0  0  0  0  0  0  0  0  0  0
    8.4309    0.8815    0.0000 C   0  0  0  0  0  0  0  0  0  0  0  0
    8.7256   -0.5167    0.0000 C   0  0  0  0  0  0  0  0  0  0  0  0
    9.6550   -2.2354    0.0000 C   0  0  0  0  0  0  0  0  0  0  0  0
    3.2678   -1.8374    0.0000 C   0  0  0  0  0  0  0  0  0  0  0  0
    9.7891    0.4376    0.0000 C   0  0  0  0  0  0  0  0  0  0  0  0
    9.2381    1.0517    0.0000 C   0  0  0  0  0  0  0  0  0  0  0  0
    9.5328   -0.3466    0.0000 C   0  0  0  0  0  0  0  0  0  0  0  0
    2.0625   -0.4221    0.0000 C   0  0  0  0  0  0  0  0  0  0  0  0
    2.8876    1.0069    0.0000 C   0  0  0  0  0  0  0  0  0  0  0  0
   10.5965    0.6078    0.0000 C   0  0  0  0  0  0  0  0  0  0  0  0
    1.6500    0.2925    0.0000 C   0  0  0  0  0  0  0  0  0  0  0  0
    2.0625    1.0069    0.0000 C   0  0  0  0  0  0  0  0  0  0  0  0
   10.8527    1.3920    0.0000 C   0  0  0  0  0  0  0  0  0  0  0  0
   11.1474   -0.0063    0.0000 C   0  0  0  0  0  0  0  0  0  0  0  0
   11.6600    1.5621    0.0000 C   0  0  0  0  0  0  0  0  0  0  0  0
   11.9547    0.1638    0.0000 C   0  0  0  0  0  0  0  0  0  0  0  0
   12.2110    0.9480    0.0000 C   0  0  0  0  0  0  0  0  0  0  0  0
   10.3018    2.0060    0.0000 C   0  0  0  0  0  0  0  0  0  0  0  0
  1 39  1  0
  2 39  2  0
  3  7  1  0
  3  8  1  0
  3 10  1  0
  4  8  2  0
  4  9  1  0
  5 16  1  0
  5 20  1  0
  5 25  1  0
  6 16  2  0
  6 21  1  0
  7  9  2  0
  7 13  1  0
  8 11  1  0
  9 14  1  0
 10 17  1  0
 11 18  1  0
 12 13  2  0
 12 15  1  0
 12 16  1  0
 14 15  2  0
 14 19  1  0
 17 22  2  0
 17 23  1  0
 18 24  1  0
 20 21  2  0
 20 29  1  0
 21 30  1  0
 22 27  1  0
 23 28  2  0
 26 27  2  0
 26 28  1  0
 26 31  1  0
 29 32  2  0
 30 33  2  0
 31 34  2  0
 31 35  1  0
 32 33  1  0
 34 36  1  0
 34 39  1  0
 35 37  2  0
 36 38  2  0
 37 38  1  0
M  END
$$$$
