
     RDKit          2D

 27 26  0  0  0  0  0  0  0  0999 V2000
   13.2533    2.3183    0.0000 O   0  0  0  0  0  0  0  0  0  0  0  0
   11.8243    2.3183    0.0000 O   0  0  0  0  0  0  0  0  0  0  0  0
   14.6823    6.4434    0.0000 O   0  0  0  0  0  0  0  0  0  0  0  0
   11.1099    0.2558    0.0000 O   0  0  0  0  0  0  0  0  0  0  0  0
   13.9678    5.2059    0.0000 O   0  0  0  0  0  0  0  0  0  0  0  0
   11.8243    1.4933    0.0000 O   0  0  0  0  0  0  0  0  0  0  0  0
   10.3954    6.4434    0.0000 O   0  0  0  0  0  0  0  0  0  0  0  0
    8.2519    2.7308    0.0000 O   0  0  0  0  0  0  0  0  0  0  0  0
   11.1099    5.2059    0.0000 O   0  0  0  0  0  0  0  0  0  0  0  0
    8.9664    1.4933    0.0000 O   0  0  0  0  0  0  0  0  0  0  0  0
   11.8243    3.9683    0.0000 N   0  0  0  0  0  0  0  0  0  0  0  0
   12.5388    6.0309    0.0000 N   0  0  0  0  0  0  0  0  0  0  0  0
   10.3954    2.3183    0.0000 N   0  0  0  0  0  0  0  0  0  0  0  0
   11.8243    4.7934    0.0000 C   0  0  0  0  0  0  0  0  0  0  0  0
   11.1099    3.5558    0.0000 C   0  0  0  0  0  0  0  0  0  0  0  0
   12.5388    5.2059    0.0000 C   0  0  0  0  0  0  0  0  0  0  0  0
   11.1099    2.7308    0.0000 C   0  0  0  0  0  0  0  0  0  0  0  0
   12.5388    3.5558    0.0000 C   0  0  0  0  0  0  0  0  0  0  0  0
   13.2533    6.4434    0.0000 C   0  0  0  0  0  0  0  0  0  0  0  0
   10.3954    1.4933    0.0000 C   0  0  0  0  0  0  0  0  0  0  0  0
   11.8243    6.4434    0.0000 C   0  0  0  0  0  0  0  0  0  0  0  0
    9.6808    2.7308    0.0000 C   0  0  0  0  0  0  0  0  0  0  0  0
   12.5388    2.7308    0.0000 C   0  0  0  0  0  0  0  0  0  0  0  0
   13.9678    6.0309    0.0000 C   0  0  0  0  0  0  0  0  0  0  0  0
   11.1099    1.0808    0.0000 C   0  0  0  0  0  0  0  0  0  0  0  0
   11.1099    6.0309    0.0000 C   0  0  0  0  0  0  0  0  0  0  0  0
    8.9664    2.3183    0.0000 C   0  0  0  0  0  0  0  0  0  0  0  0
  1 23  1  0
  2 23  2  0
  3 24  1  0
  4 25  1  0
  5 24  2  0
  6 25  2  0
  7 26  1  0
  8 27  1  0
  9 26  2  0
 10 27  2  0
 11 14  1  0
 11 15  1  0
 11 18  1  0
 12 16  1  0
 12 19  1  0
 12 21  1  0
 13 17  1  0
 13 20  1  0
 13 22  1  0
 14 16  1  0
 15 17  1  0
 18 23  1  0
 19 24  1  0
 20 25  1  0
 21 26  1  0
 22 27  1  0
M  CHG  3   1  -1   7  -1   8  -1
M  END
$$$$
