669
     RDKit          2D

 20 21  0  0  0  0  0  0  0  0999 V2000
    3.0791   -0.5207    0.0000 S   0  0  0  0  0  0  0  0  0  0  0  0
    3.4916   -1.2351    0.0000 O   0  0  0  0  0  0  0  0  0  0  0  0
    2.6665    0.1938    0.0000 O   0  0  0  0  0  0  0  0  0  0  0  0
    6.7176   -1.5972    0.0000 N   0  0  0  0  0  0  0  0  0  0  0  0
    8.0375    1.4693    0.0000 N   0  0  0  0  0  0  0  0  0  0  0  0
    2.3645   -0.9332    0.0000 N   0  0  0  0  0  0  0  0  0  0  0  0
    6.7176   -0.2693    0.0000 C   0  0  0  0  0  0  0  0  0  0  0  0
    5.9370   -0.5207    0.0000 C   0  0  0  0  0  0  0  0  0  0  0  0
    6.9739    0.5149    0.0000 C   0  0  0  0  0  0  0  0  0  0  0  0
    5.9370   -1.3457    0.0000 C   0  0  0  0  0  0  0  0  0  0  0  0
    4.5080   -0.5207    0.0000 C   0  0  0  0  0  0  0  0  0  0  0  0
    7.7812    0.6851    0.0000 C   0  0  0  0  0  0  0  0  0  0  0  0
    5.2224   -0.1082    0.0000 C   0  0  0  0  0  0  0  0  0  0  0  0
    7.1991   -0.9332    0.0000 C   0  0  0  0  0  0  0  0  0  0  0  0
    3.7935   -0.1082    0.0000 C   0  0  0  0  0  0  0  0  0  0  0  0
    5.2224   -1.7582    0.0000 C   0  0  0  0  0  0  0  0  0  0  0  0
    4.5080   -1.3457    0.0000 C   0  0  0  0  0  0  0  0  0  0  0  0
    8.8448    1.6394    0.0000 C   0  0  0  0  0  0  0  0  0  0  0  0
    7.4865    2.0833    0.0000 C   0  0  0  0  0  0  0  0  0  0  0  0
    1.6500   -0.5207    0.0000 C   0  0  0  0  0  0  0  0  0  0  0  0
  1  2  2  0
  1  3  2  0
  1  6  1  0
  1 15  1  0
  4 10  1  0
  4 14  1  0
  5 12  1  0
  5 18  1  0
  5 19  1  0
  6 20  1  0
  7  8  1  0
  7  9  1  0
  7 14  2  0
  8 10  2  0
  8 13  1  0
  9 12  1  0
 10 16  1  0
 11 13  2  0
 11 15  1  0
 11 17  1  0
 16 17  2  0
M  END
$$$$
