476
     RDKit          2D

 21 23  0  0  1  0  0  0  0  0999 V2000
    5.1753   -1.7207    0.0000 S   0  0  0  0  0  0  0  0  0  0  0  0
    5.2223    0.0017    0.0000 O   0  0  0  0  0  0  0  0  0  0  0  0
    2.3644    0.0017    0.0000 N   0  0  0  0  0  0  0  0  0  0  0  0
    4.5079   -0.4108    0.0000 C   0  0  0  0  0  0  0  0  0  0  0  0
    3.7934    0.0017    0.0000 C   0  0  0  0  0  0  0  0  0  0  0  0
    3.0790   -0.4108    0.0000 C   0  0  0  0  0  0  0  0  0  0  0  0
    4.5079   -1.2358    0.0000 C   0  0  0  0  0  0  0  0  0  0  0  0
    5.2223    0.8267    0.0000 C   0  0  0  0  0  0  0  0  0  0  0  0
    5.9369    1.2392    0.0000 C   0  0  0  0  0  0  0  0  0  0  0  0
    5.9369    2.0642    0.0000 C   0  0  0  0  0  0  0  0  0  0  0  0
    3.8405   -1.7207    0.0000 C   0  0  0  0  0  0  0  0  0  0  0  0
    4.5079    1.2392    0.0000 C   0  0  0  0  0  0  0  0  0  0  0  0
    6.6743    0.7981    0.0000 C   0  0  0  0  0  0  0  0  0  0  0  0
    5.2223    2.4767    0.0000 C   0  0  0  0  0  0  0  0  0  0  0  0
    4.5079    2.0642    0.0000 C   0  0  0  0  0  0  0  0  0  0  0  0
    6.6743    2.5054    0.0000 C   0  0  0  0  0  0  0  0  0  0  0  0
    4.0954   -2.5054    0.0000 C   0  0  0  0  0  0  0  0  0  0  0  0
    4.9204   -2.5054    0.0000 C   0  0  0  0  0  0  0  0  0  0  0  0
    1.6500   -0.4108    0.0000 C   0  0  0  0  0  0  0  0  0  0  0  0
    7.4219    1.2221    0.0000 C   0  0  0  0  0  0  0  0  0  0  0  0
    7.4219    2.0814    0.0000 C   0  0  0  0  0  0  0  0  0  0  0  0
  1  7  1  0
  1 18  1  0
  4  2  1  0
  2  8  1  0
  3  6  1  0
  3 19  1  0
  4  5  1  6
  4  7  1  0
  5  6  1  0
  7 11  2  0
  8  9  1  0
  8 12  2  0
  9 10  2  0
  9 13  1  0
 10 14  1  0
 10 16  1  0
 11 17  1  0
 12 15  1  0
 13 20  2  0
 14 15  2  0
 16 21  2  0
 17 18  2  0
 20 21  1  0
M  END
$$$$
