547
     RDKit          2D

 27 30  0  0  1  0  0  0  0  0999 V2000
    4.1400    0.0373    0.0000 F   0  0  0  0  0  0  0  0  0  0  0  0
    3.9559    0.6428    0.0000 O   0  0  0  0  0  0  0  0  0  0  0  0
    6.5853    1.8799    0.0000 O   0  0  0  0  0  0  0  0  0  0  0  0
    8.1998    2.2203    0.0000 O   0  0  0  0  0  0  0  0  0  0  0  0
    1.6500   -2.2879    0.0000 O   0  0  0  0  0  0  0  0  0  0  0  0
    6.0994    0.2303    0.0000 C   0  0  0  0  0  0  0  0  0  0  0  0
    6.0994   -0.5947    0.0000 C   0  0  0  0  0  0  0  0  0  0  0  0
    5.3849   -1.0072    0.0000 C   0  0  0  0  0  0  0  0  0  0  0  0
    4.6704   -0.5947    0.0000 C   0  0  0  0  0  0  0  0  0  0  0  0
    6.8800    0.4817    0.0000 C   0  0  0  0  0  0  0  0  0  0  0  0
    6.8800   -0.8461    0.0000 C   0  0  0  0  0  0  0  0  0  0  0  0
    5.3849    0.6428    0.0000 C   0  0  0  0  0  0  0  0  0  0  0  0
    7.3614   -0.1822    0.0000 C   0  0  0  0  0  0  0  0  0  0  0  0
    4.6704    0.2303    0.0000 C   0  0  0  0  0  0  0  0  0  0  0  0
    3.9196   -1.0129    0.0000 C   0  0  0  0  0  0  0  0  0  0  0  0
    5.3981   -1.8664    0.0000 C   0  0  0  0  0  0  0  0  0  0  0  0
    6.0994    1.0553    0.0000 C   0  0  0  0  0  0  0  0  0  0  0  0
    4.6572   -2.3019    0.0000 C   0  0  0  0  0  0  0  0  0  0  0  0
    3.9130   -1.8722    0.0000 C   0  0  0  0  0  0  0  0  0  0  0  0
    7.1363    1.2659    0.0000 C   0  0  0  0  0  0  0  0  0  0  0  0
    8.1865   -0.1822    0.0000 C   0  0  0  0  0  0  0  0  0  0  0  0
    3.6435   -0.2355    0.0000 C   0  0  0  0  0  0  0  0  0  0  0  0
    3.1550   -0.5475    0.0000 C   0  0  0  0  0  0  0  0  0  0  0  0
    3.1413   -2.3257    0.0000 C   0  0  0  0  0  0  0  0  0  0  0  0
    7.9436    1.4360    0.0000 C   0  0  0  0  0  0  0  0  0  0  0  0
    2.3730   -0.9830    0.0000 C   0  0  0  0  0  0  0  0  0  0  0  0
    2.3660   -1.8781    0.0000 C   0  0  0  0  0  0  0  0  0  0  0  0
  9  1  1  6
 14  2  1  1
  3 20  2  0
  4 25  1  0
  5 27  2  0
  6  7  1  0
  6 10  1  0
  6 12  1  0
  6 17  1  1
  7  8  1  0
  7 11  1  1
  8  9  1  0
  8 16  1  6
  9 14  1  0
  9 15  1  0
 10 13  1  0
 10 20  1  1
 11 13  1  0
 12 14  1  0
 13 21  1  6
 15 19  1  0
 15 22  1  1
 15 23  1  0
 16 18  1  0
 18 19  1  0
 19 24  2  0
 20 25  1  0
 23 26  2  0
 24 27  1  0
 26 27  1  0
M  END
$$$$
