581
     RDKit          2D

 23 24  0  0  1  0  0  0  0  0999 V2000
    5.6655   -0.5564    0.0000 O   0  0  0  0  0  0  0  0  0  0  0  0
    5.2530    1.5382    0.0000 O   0  0  0  0  0  0  0  0  0  0  0  0
    4.2365   -0.5564    0.0000 O   0  0  0  0  0  0  0  0  0  0  0  0
    7.1175    0.4986    0.0000 O   0  0  0  0  0  0  0  0  0  0  0  0
    6.8626    1.7931    0.0000 O   0  0  0  0  0  0  0  0  0  0  0  0
    5.6655   -2.2064    0.0000 O   0  0  0  0  0  0  0  0  0  0  0  0
    4.2365   -3.0314    0.0000 O   0  0  0  0  0  0  0  0  0  0  0  0
    2.8075   -2.2064    0.0000 O   0  0  0  0  0  0  0  0  0  0  0  0
    3.6002    1.0507    0.0000 O   0  0  0  0  0  0  0  0  0  0  0  0
    5.3634    2.7757    0.0000 O   0  0  0  0  0  0  0  0  0  0  0  0
    2.0930   -0.9689    0.0000 O   0  0  0  0  0  0  0  0  0  0  0  0
    5.6655    0.2686    0.0000 C   0  0  0  0  0  0  0  0  0  0  0  0
    6.3329    0.7536    0.0000 C   0  0  0  0  0  0  0  0  0  0  0  0
    4.9980    0.7536    0.0000 C   0  0  0  0  0  0  0  0  0  0  0  0
    6.0780    1.5382    0.0000 C   0  0  0  0  0  0  0  0  0  0  0  0
    4.9509   -0.9689    0.0000 C   0  0  0  0  0  0  0  0  0  0  0  0
    4.9509   -1.7939    0.0000 C   0  0  0  0  0  0  0  0  0  0  0  0
    4.2365   -2.2064    0.0000 C   0  0  0  0  0  0  0  0  0  0  0  0
    3.5220   -1.7939    0.0000 C   0  0  0  0  0  0  0  0  0  0  0  0
    3.5220   -0.9689    0.0000 C   0  0  0  0  0  0  0  0  0  0  0  0
    4.2134    0.4986    0.0000 C   0  0  0  0  0  0  0  0  0  0  0  0
    6.0780    2.3632    0.0000 C   0  0  0  0  0  0  0  0  0  0  0  0
    2.8075   -0.5564    0.0000 C   0  0  0  0  0  0  0  0  0  0  0  0
 12  1  1  6
 16  1  1  1
  2 14  1  0
  2 15  1  0
  3 16  1  0
  3 20  1  0
 13  4  1  1
 15  5  1  1
 17  6  1  6
 18  7  1  1
 19  8  1  1
  9 21  1  0
 10 22  1  0
 11 23  1  0
 12 13  1  0
 12 14  1  0
 13 15  1  0
 14 21  1  1
 15 22  1  0
 16 17  1  0
 17 18  1  0
 18 19  1  0
 19 20  1  0
 20 23  1  1
M  END
$$$$
