328
     RDKit          2D

 25 27  0  0  0  0  0  0  0  0999 V2000
    8.7741    2.4559    0.0000 Cl  0  0  0  0  0  0  0  0  0  0  0  0
    2.3645   -0.4977    0.0000 O   0  0  0  0  0  0  0  0  0  0  0  0
    4.9939    2.3894    0.0000 O   0  0  0  0  0  0  0  0  0  0  0  0
    5.2503   -2.5191    0.0000 O   0  0  0  0  0  0  0  0  0  0  0  0
    4.1866   -1.5648    0.0000 O   0  0  0  0  0  0  0  0  0  0  0  0
    5.2886    0.9912    0.0000 N   0  0  0  0  0  0  0  0  0  0  0  0
    5.2886   -0.3367    0.0000 C   0  0  0  0  0  0  0  0  0  0  0  0
    4.5080   -0.0852    0.0000 C   0  0  0  0  0  0  0  0  0  0  0  0
    4.5080    0.7398    0.0000 C   0  0  0  0  0  0  0  0  0  0  0  0
    5.7701    0.3273    0.0000 C   0  0  0  0  0  0  0  0  0  0  0  0
    5.5449   -1.1209    0.0000 C   0  0  0  0  0  0  0  0  0  0  0  0
    3.7935   -0.4977    0.0000 C   0  0  0  0  0  0  0  0  0  0  0  0
    3.7935    1.1523    0.0000 C   0  0  0  0  0  0  0  0  0  0  0  0
    6.5951    0.3273    0.0000 C   0  0  0  0  0  0  0  0  0  0  0  0
    5.5449    1.7754    0.0000 C   0  0  0  0  0  0  0  0  0  0  0  0
    3.0791   -0.0852    0.0000 C   0  0  0  0  0  0  0  0  0  0  0  0
    3.0791    0.7398    0.0000 C   0  0  0  0  0  0  0  0  0  0  0  0
    6.3522    1.9455    0.0000 C   0  0  0  0  0  0  0  0  0  0  0  0
    4.9939   -1.7349    0.0000 C   0  0  0  0  0  0  0  0  0  0  0  0
    6.6086    2.7297    0.0000 C   0  0  0  0  0  0  0  0  0  0  0  0
    6.9032    1.3314    0.0000 C   0  0  0  0  0  0  0  0  0  0  0  0
    7.4158    2.8999    0.0000 C   0  0  0  0  0  0  0  0  0  0  0  0
    7.7105    1.5016    0.0000 C   0  0  0  0  0  0  0  0  0  0  0  0
    7.9668    2.2858    0.0000 C   0  0  0  0  0  0  0  0  0  0  0  0
    1.6500   -0.0852    0.0000 C   0  0  0  0  0  0  0  0  0  0  0  0
  1 24  1  0
  2 16  1  0
  2 25  1  0
  3 15  2  0
  4 19  1  0
  5 19  2  0
  6  9  1  0
  6 10  1  0
  6 15  1  0
  7  8  1  0
  7 10  2  0
  7 11  1  0
  8  9  2  0
  8 12  1  0
  9 13  1  0
 10 14  1  0
 11 19  1  0
 12 16  2  0
 13 17  2  0
 15 18  1  0
 16 17  1  0
 18 20  2  0
 18 21  1  0
 20 22  1  0
 21 23  2  0
 22 24  2  0
 23 24  1  0
M  END
$$$$
