 
     RDKit          2D

 35 36  0  0  1  0  0  0  0  0999 V2000
   10.8277   -9.6141    0.0000 C   0  0  0  0  0  0  0  0  0  0  0  0
   10.8277  -10.4413    0.0000 C   0  0  0  0  0  0  0  0  0  0  0  0
   11.5422  -10.8528    0.0000 C   0  0  0  0  0  0  0  0  0  0  0  0
   12.2568  -10.4413    0.0000 O   0  0  0  0  0  0  0  0  0  0  0  0
   12.2568   -9.6141    0.0000 C   0  0  0  0  0  0  0  0  0  0  0  0
   11.5422   -9.1984    0.0000 C   0  0  0  0  0  0  0  0  0  0  0  0
    9.4019  -10.4454    0.0000 C   0  0  0  0  0  0  0  0  0  0  0  0
   10.1170  -10.8612    0.0000 C   0  0  0  0  0  0  0  0  0  0  0  0
   10.1138   -9.2047    0.0000 O   0  0  0  0  0  0  0  0  0  0  0  0
   11.5343   -8.3711    0.0000 O   0  0  0  0  0  0  0  0  0  0  0  0
   12.9686   -9.1984    0.0000 C   0  0  0  0  0  0  0  0  0  0  0  0
   13.6835   -9.6058    0.0000 C   0  0  0  0  0  0  0  0  0  0  0  0
   14.3985   -9.1943    0.0000 C   0  0  0  0  0  0  0  0  0  0  0  0
   15.1135   -9.6016    0.0000 C   0  0  0  0  0  0  0  0  0  0  0  0
   15.8243   -9.1901    0.0000 O   0  0  0  0  0  0  0  0  0  0  0  0
   16.5392   -9.5975    0.0000 C   0  0  0  0  0  0  0  0  0  0  0  0
   17.2542   -9.1859    0.0000 C   0  0  0  0  0  0  0  0  0  0  0  0
   17.9692   -9.5933    0.0000 C   0  0  0  0  0  0  0  0  0  0  0  0
   18.6841   -9.1818    0.0000 C   0  0  0  0  0  0  0  0  0  0  0  0
   19.3991   -9.5892    0.0000 C   0  0  0  0  0  0  0  0  0  0  0  0
   20.1141   -9.1777    0.0000 C   0  0  0  0  0  0  0  0  0  0  0  0
   20.8291   -9.5850    0.0000 C   0  0  0  0  0  0  0  0  0  0  0  0
   21.5398   -9.1734    0.0000 C   0  0  0  0  0  0  0  0  0  0  0  0
   22.2549   -9.5809    0.0000 C   0  0  0  0  0  0  0  0  0  0  0  0
   22.9699   -9.1652    0.0000 O   0  0  0  0  0  0  0  0  0  0  0  0
   13.6853  -10.4330    0.0000 C   0  0  0  0  0  0  0  0  0  0  0  0
   15.1153  -10.4288    0.0000 O   0  0  0  0  0  0  0  0  0  0  0  0
   22.2585  -10.4080    0.0000 O   0  0  0  0  0  0  0  0  0  0  0  0
    8.6845  -10.8602    0.0000 C   0  0  0  0  0  0  0  0  0  0  0  0
    7.9680  -10.4437    0.0000 C   0  0  0  0  0  0  0  0  0  0  0  0
    7.2506  -10.8585    0.0000 C   0  0  0  0  0  0  0  0  0  0  0  0
    6.5341  -10.4420    0.0000 C   0  0  0  0  0  0  0  0  0  0  0  0
    9.4144  -11.2352    0.0000 O   0  0  0  0  0  0  0  0  0  0  0  0
    7.2496  -11.6858    0.0000 O   0  0  0  0  0  0  0  0  0  0  0  0
    7.9690   -9.6166    0.0000 C   0  0  0  0  0  0  0  0  0  0  0  0
 31 32  1  1
  3  4  1  0
  7 33  1  0
 29 33  1  1
  4  5  1  0
 31 34  1  0
  5  6  1  0
 30 35  1  6
  7  8  1  6
  2  8  1  6
  1  9  1  1
  6 10  1  1
  5 11  1  6
 11 12  1  0
 12 13  2  0
 13 14  1  0
 14 15  1  0
 15 16  1  0
 16 17  1  0
 17 18  1  0
 18 19  1  0
 19 20  1  0
 20 21  1  0
 21 22  1  0
 22 23  1  0
 23 24  1  0
 24 25  1  0
 12 26  1  0
 14 27  2  0
 24 28  2  0
  7 29  1  0
  1  2  1  0
 29 30  1  0
  1  6  1  0
 30 31  1  0
  2  3  1  0
M  END
$$$$
