
     RDKit          2D

 37 40  0  0  0  0  0  0  0  0999 V2000
    8.3812  -11.1373    0.0000 C   0  0  0  0  0  0  0  0  0  0  0  0
    8.3812  -11.9623    0.0000 C   0  0  0  0  0  0  0  0  0  0  0  0
    9.0957  -12.3749    0.0000 C   0  0  0  0  0  0  0  0  0  0  0  0
    9.8102  -11.9623    0.0000 C   0  0  0  0  0  0  0  0  0  0  0  0
    9.8102  -11.1373    0.0000 C   0  0  0  0  0  0  0  0  0  0  0  0
    9.0957  -10.7248    0.0000 C   0  0  0  0  0  0  0  0  0  0  0  0
   11.2392  -11.9623    0.0000 C   0  0  0  0  0  0  0  0  0  0  0  0
   11.2392  -11.1373    0.0000 C   0  0  0  0  0  0  0  0  0  0  0  0
   10.5247  -10.7248    0.0000 C   0  0  0  0  0  0  0  0  0  0  0  0
   11.9538  -12.3749    0.0000 C   0  0  0  0  0  0  0  0  0  0  0  0
   12.6681  -11.9623    0.0000 C   0  0  0  0  0  0  0  0  0  0  0  0
   12.6681  -11.1373    0.0000 C   0  0  0  0  0  0  0  0  0  0  0  0
   11.9538  -10.7248    0.0000 C   0  0  0  0  0  0  0  0  0  0  0  0
   10.5247   -9.8996    0.0000 C   0  0  0  0  0  0  0  0  0  0  0  0
   11.2404   -9.4865    0.0000 C   0  0  0  0  0  0  0  0  0  0  0  0
   11.2404   -8.6614    0.0000 C   0  0  0  0  0  0  0  0  0  0  0  0
   10.5259   -8.2489    0.0000 N   0  0  0  0  0  0  0  0  0  0  0  0
    9.8102   -8.6621    0.0000 C   0  0  0  0  0  0  0  0  0  0  0  0
    9.8102   -9.4872    0.0000 C   0  0  0  0  0  0  0  0  0  0  0  0
    9.8102  -10.3123    0.0000 O   0  0  0  0  0  0  0  0  0  0  0  0
   10.5259   -7.4247    0.0000 C   0  0  0  0  0  0  0  0  0  0  0  0
   11.2408   -7.0118    0.0000 C   0  0  0  0  0  0  0  0  0  0  0  0
   11.9455   -7.4188    0.0000 C   0  0  0  0  0  0  0  0  0  0  0  0
   12.6450   -7.0149    0.0000 C   0  0  0  0  0  0  0  0  0  0  0  0
   13.3471   -7.4204    0.0000 C   0  0  0  0  0  0  0  0  0  0  0  0
   12.6451   -6.1871    0.0000 O   0  0  0  0  0  0  0  0  0  0  0  0
   13.3471   -8.2493    0.0000 C   0  0  0  0  0  0  0  0  0  0  0  0
   14.0616   -8.6620    0.0000 C   0  0  0  0  0  0  0  0  0  0  0  0
   14.7761   -8.2495    0.0000 C   0  0  0  0  0  0  0  0  0  0  0  0
   14.7762   -7.4205    0.0000 C   0  0  0  0  0  0  0  0  0  0  0  0
   14.0617   -7.0079    0.0000 C   0  0  0  0  0  0  0  0  0  0  0  0
   15.4901   -8.6617    0.0000 C   0  0  0  0  0  0  0  0  0  0  0  0
   16.1943   -8.2551    0.0000 C   0  0  0  0  0  0  0  0  0  0  0  0
   16.8942   -8.6592    0.0000 O   0  0  0  0  0  0  0  0  0  0  0  0
   16.1944   -7.4249    0.0000 O   0  0  0  0  0  0  0  0  0  0  0  0
   14.9068   -9.2452    0.0000 C   0  0  0  0  0  0  0  0  0  0  0  0
   16.0734   -9.2452    0.0000 C   0  0  0  0  0  0  0  0  0  0  0  0
  1  2  2  0
  2  3  1  0
  3  4  2  0
  4  5  1  0
  5  6  2  0
  1  6  1  0
  7  8  2  0
  8  9  1  0
  5  9  1  0
  7 10  1  0
 10 11  2  0
 11 12  1  0
 12 13  2  0
  8 13  1  0
  9 14  1  0
 14 15  1  0
 15 16  1  0
 16 17  1  0
 17 18  1  0
 18 19  1  0
 14 19  1  0
  9 20  1  0
 17 21  1  0
 21 22  1  0
 22 23  1  0
 23 24  1  0
 24 25  1  0
 24 26  1  0
 25 27  2  0
 27 28  1  0
 28 29  2  0
 29 30  1  0
 30 31  2  0
 25 31  1  0
 29 32  1  0
 32 33  1  0
 33 34  1  0
 33 35  2  0
 32 36  1  0
 32 37  1  0
M  END
$$$$
