297
     RDKit          2D

 21 22  0  0  1  0  0  0  0  0999 V2000
    5.9370   -0.2063    0.0000 O   0  0  0  0  0  0  0  0  0  0  0  0
    4.5080    1.4438    0.0000 N   0  0  0  0  0  0  0  0  0  0  0  0
    4.5080   -0.2063    0.0000 N   0  0  0  0  0  0  0  0  0  0  0  0
    5.2224    1.0313    0.0000 C   0  0  0  0  0  0  0  0  0  0  0  0
    5.9370    1.4438    0.0000 C   0  0  0  0  0  0  0  0  0  0  0  0
    4.5080    2.2688    0.0000 C   0  0  0  0  0  0  0  0  0  0  0  0
    5.9370    2.2688    0.0000 C   0  0  0  0  0  0  0  0  0  0  0  0
    5.2224    2.6813    0.0000 C   0  0  0  0  0  0  0  0  0  0  0  0
    3.7935    1.0313    0.0000 C   0  0  0  0  0  0  0  0  0  0  0  0
    5.2224    0.2063    0.0000 C   0  0  0  0  0  0  0  0  0  0  0  0
    3.0791    1.4438    0.0000 C   0  0  0  0  0  0  0  0  0  0  0  0
    2.3645    1.0313    0.0000 C   0  0  0  0  0  0  0  0  0  0  0  0
    4.5080   -1.0313    0.0000 C   0  0  0  0  0  0  0  0  0  0  0  0
    1.6500    1.4438    0.0000 C   0  0  0  0  0  0  0  0  0  0  0  0
    5.2224   -1.4438    0.0000 C   0  0  0  0  0  0  0  0  0  0  0  0
    3.7935   -1.4438    0.0000 C   0  0  0  0  0  0  0  0  0  0  0  0
    5.2224   -2.2688    0.0000 C   0  0  0  0  0  0  0  0  0  0  0  0
    3.7935   -2.2688    0.0000 C   0  0  0  0  0  0  0  0  0  0  0  0
    5.9370   -1.0313    0.0000 C   0  0  0  0  0  0  0  0  0  0  0  0
    3.0791   -1.0313    0.0000 C   0  0  0  0  0  0  0  0  0  0  0  0
    4.5080   -2.6813    0.0000 C   0  0  0  0  0  0  0  0  0  0  0  0
  1 10  2  0
  2  4  1  0
  2  6  1  0
  2  9  1  0
  3 10  1  0
  3 13  1  0
  4  5  1  0
  4 10  1  0
  5  7  1  0
  6  8  1  0
  7  8  1  0
  9 11  1  0
 11 12  1  0
 12 14  1  0
 13 15  2  0
 13 16  1  0
 15 17  1  0
 15 19  1  0
 16 18  2  0
 16 20  1  0
 17 21  2  0
 18 21  1  0
M  END
$$$$
