
     RDKit          2D

 22 24  0  0  0  0  0  0  0  0999 V2000
   -0.6312    0.1434    0.0000 C   0  0  0  0  0  0  0  0  0  0  0  0
    0.1937    0.1434    0.0000 C   0  0  0  0  0  0  0  0  0  0  0  0
    0.5245    1.5927    0.0000 C   0  0  0  0  0  0  0  0  0  0  0  0
   -0.2250    0.5897    0.0000 N   0  0  0  0  0  0  0  0  0  0  0  0
   -0.2250    1.4147    0.0000 C   0  0  0  0  0  0  0  0  0  0  0  0
   -0.2187    1.9507    0.0000 C   0  0  0  0  0  0  0  0  0  0  0  0
   -0.9620    1.5927    0.0000 C   0  0  0  0  0  0  0  0  0  0  0  0
   -1.6765    2.8302    0.0000 O   0  0  0  0  0  0  0  0  0  0  0  0
   -1.6765    2.0052    0.0000 C   0  0  0  0  0  0  0  0  0  0  0  0
   -2.3910    1.5927    0.0000 O   0  0  0  0  0  0  0  0  0  0  0  0
   -3.1055    2.0052    0.0000 C   0  0  0  0  0  0  0  0  0  0  0  0
   -0.2187    2.7757    0.0000 O   0  0  0  0  0  0  0  0  0  0  0  0
    0.4957    4.0132    0.0000 O   0  0  0  0  0  0  0  0  0  0  0  0
    0.4957    3.1882    0.0000 C   0  0  0  0  0  0  0  0  0  0  0  0
    1.2102    2.7757    0.0000 C   0  0  0  0  0  0  0  0  0  0  0  0
    1.9247    1.5382    0.0000 C   0  0  0  0  0  0  0  0  0  0  0  0
    2.6391    1.9507    0.0000 C   0  0  0  0  0  0  0  0  0  0  0  0
    2.6391    2.7757    0.0000 C   0  0  0  0  0  0  0  0  0  0  0  0
    1.9247    3.1882    0.0000 C   0  0  0  0  0  0  0  0  0  0  0  0
    1.2102    1.9507    0.0000 C   0  0  0  0  0  0  0  0  0  0  0  0
   -1.1456    0.7885    0.0000 C   0  0  0  0  0  0  0  0  0  0  0  0
    0.7081    0.7885    0.0000 C   0  0  0  0  0  0  0  0  0  0  0  0
  6  7  1  0
  3  6  1  0
  7 21  1  0
 21  1  1  6
  1  2  1  0
 22  2  1  6
 22  3  1  0
 21  4  1  0
 22  4  1  0
  4  5  1  0
  6 12  1  1
  7  9  1  1
  9  8  2  0
  9 10  1  0
 10 11  1  0
 12 14  1  0
 14 13  2  0
 14 15  1  0
 19 15  1  0
 15 20  2  0
 16 17  2  0
 20 16  1  0
 17 18  1  0
 18 19  2  0
M  END
$$$$
