358
     RDKit          2D

 26 28  0  0  1  0  0  0  0  0999 V2000
    1.9520   -0.5088    0.0000 F   0  0  0  0  0  0  0  0  0  0  0  0
    1.6500   -1.6357    0.0000 F   0  0  0  0  0  0  0  0  0  0  0  0
    2.7770   -1.9378    0.0000 F   0  0  0  0  0  0  0  0  0  0  0  0
    4.4109   -2.0673    0.0000 F   0  0  0  0  0  0  0  0  0  0  0  0
    6.0608   -2.0863    0.0000 F   0  0  0  0  0  0  0  0  0  0  0  0
    5.2263   -2.9018    0.0000 F   0  0  0  0  0  0  0  0  0  0  0  0
    4.5079    1.6643    0.0000 O   0  0  0  0  0  0  0  0  0  0  0  0
    2.3644    1.2518    0.0000 N   0  0  0  0  0  0  0  0  0  0  0  0
    3.7934   -1.2232    0.0000 N   0  0  0  0  0  0  0  0  0  0  0  0
    3.0790    1.6643    0.0000 C   0  0  0  0  0  0  0  0  0  0  0  0
    3.0790    2.4893    0.0000 C   0  0  0  0  0  0  0  0  0  0  0  0
    3.7934    1.2518    0.0000 C   0  0  0  0  0  0  0  0  0  0  0  0
    2.3644    2.9018    0.0000 C   0  0  0  0  0  0  0  0  0  0  0  0
    1.6500    2.4893    0.0000 C   0  0  0  0  0  0  0  0  0  0  0  0
    1.6500    1.6643    0.0000 C   0  0  0  0  0  0  0  0  0  0  0  0
    3.7934    0.4268    0.0000 C   0  0  0  0  0  0  0  0  0  0  0  0
    4.5079    0.0143    0.0000 C   0  0  0  0  0  0  0  0  0  0  0  0
    3.0790    0.0143    0.0000 C   0  0  0  0  0  0  0  0  0  0  0  0
    4.5079   -0.8107    0.0000 C   0  0  0  0  0  0  0  0  0  0  0  0
    3.0790   -0.8107    0.0000 C   0  0  0  0  0  0  0  0  0  0  0  0
    5.2453    0.4553    0.0000 C   0  0  0  0  0  0  0  0  0  0  0  0
    5.2453   -1.2519    0.0000 C   0  0  0  0  0  0  0  0  0  0  0  0
    5.9929    0.0314    0.0000 C   0  0  0  0  0  0  0  0  0  0  0  0
    5.9929   -0.8280    0.0000 C   0  0  0  0  0  0  0  0  0  0  0  0
    2.3644   -1.2232    0.0000 C   0  0  0  0  0  0  0  0  0  0  0  0
    5.2359   -2.0768    0.0000 C   0  0  0  0  0  0  0  0  0  0  0  0
  1 25  1  0
  2 25  1  0
  3 25  1  0
  4 26  1  0
  5 26  1  0
  6 26  1  0
  7 12  1  0
  8 10  1  0
  8 15  1  0
  9 19  2  0
  9 20  1  0
 10 11  1  0
 10 12  1  0
 11 13  1  0
 12 16  1  0
 13 14  1  0
 14 15  1  0
 16 17  2  0
 16 18  1  0
 17 19  1  0
 17 21  1  0
 18 20  2  0
 19 22  1  0
 20 25  1  0
 21 23  2  0
 22 24  2  0
 22 26  1  0
 23 24  1  0
M  END
$$$$
