
     RDKit          2D

 58 60  0  0  1  0  0  0  0  0999 V2000
    1.4289   -0.4125    0.0000 C   0  0  0  0  0  0  0  0  0  0  0  0
    0.7145   -0.8250    0.0000 C   0  0  0  0  0  0  0  0  0  0  0  0
    0.7145    0.8250    0.0000 C   0  0  0  0  0  0  0  0  0  0  0  0
    0.7145   -1.6500    0.0000 C   0  0  0  0  0  0  0  0  0  0  0  0
    0.7145    1.6500    0.0000 C   0  0  0  0  0  0  0  0  0  0  0  0
    0.0000   -2.0625    0.0000 C   0  0  0  0  0  0  0  0  0  0  0  0
    0.0000    2.0625    0.0000 C   0  0  0  0  0  0  0  0  0  0  0  0
   -0.7145   -1.6500    0.0000 C   0  0  0  0  0  0  0  0  0  0  0  0
   -0.7145    1.6500    0.0000 C   0  0  0  0  0  0  0  0  0  0  0  0
   -0.7145   -0.8250    0.0000 O   0  0  0  0  0  0  0  0  0  0  0  0
   -0.7145    0.8250    0.0000 C   0  0  0  0  0  0  0  0  0  0  0  0
   -1.4289   -0.4125    0.0000 C   0  0  0  0  0  0  0  0  0  0  0  0
    2.1434   -0.8250    0.0000 O   0  0  0  0  0  0  0  0  0  0  0  0
    0.0000   -0.4125    0.0000 C   0  0  0  0  0  0  0  0  0  0  0  0
    2.8578   -0.4125    0.0000 C   0  0  0  0  0  0  0  0  0  0  0  0
    1.4289   -2.0625    0.0000 O   0  0  0  0  0  0  0  0  0  0  0  0
    3.5723   -0.8250    0.0000 C   0  0  0  0  0  0  0  0  0  0  0  0
    2.8578    0.4125    0.0000 O   0  0  0  0  0  0  0  0  0  0  0  0
    1.4289    2.0625    0.0000 C   0  0  0  0  0  0  0  0  0  0  0  0
    1.4289   -2.8875    0.0000 C   0  0  0  0  0  0  0  0  0  0  0  0
    0.0000   -2.8875    0.0000 C   0  0  0  0  0  0  0  0  0  0  0  0
    4.2868   -0.4125    0.0000 C   0  0  0  0  0  0  0  0  0  0  0  0
    3.5723   -1.6500    0.0000 O   0  0  0  0  0  0  0  0  0  0  0  0
    3.5723    0.8250    0.0000 C   0  0  0  0  0  0  0  0  0  0  0  0
    0.0000    2.8875    0.0000 N   0  0  0  0  0  0  0  0  0  0  0  0
    0.7144   -3.3000    0.0000 C   0  0  0  0  0  0  0  0  0  0  0  0
    2.1434   -3.3000    0.0000 O   0  0  0  0  0  0  0  0  0  0  0  0
   -1.4290   -2.0625    0.0000 O   0  0  0  0  0  0  0  0  0  0  0  0
    4.2868    0.4125    0.0000 C   0  0  0  0  0  0  0  0  0  0  0  0
    5.0013   -0.8250    0.0000 N   0  0  0  0  0  0  0  0  0  0  0  0
    3.5723    1.6500    0.0000 C   0  0  0  0  0  0  0  0  0  0  0  0
   -1.4290    2.0625    0.0000 C   0  0  0  0  0  0  0  0  0  0  0  0
    2.1434   -4.1250    0.0000 C   0  0  0  0  0  0  0  0  0  0  0  0
    5.7157   -0.4125    0.0000 C   0  0  0  0  0  0  0  0  0  0  0  0
    5.0013   -1.6500    0.0000 C   0  0  0  0  0  0  0  0  0  0  0  0
    0.0000    0.4125    0.0000 O   0  0  0  0  0  0  0  0  0  0  0  0
    1.4289   -4.5375    0.0000 C   0  0  0  0  0  0  0  0  0  0  0  0
    2.8578   -4.5375    0.0000 C   0  0  0  0  0  0  0  0  0  0  0  0
    1.4289   -5.3625    0.0000 O   0  0  0  0  0  0  0  0  0  0  0  0
    0.7144   -4.1250    0.0000 C   0  0  0  0  0  0  0  0  0  0  0  0
    0.7144    3.3000    0.0000 O   0  0  0  0  0  0  0  0  0  0  0  0
    1.4289    2.8875    0.0000 C   0  0  0  0  0  0  0  0  0  0  0  0
    2.1434    3.3000    0.0000 O   0  0  0  0  0  0  0  0  0  0  0  0
    2.8578    2.8875    0.0000 C   0  0  0  0  0  0  0  0  0  0  0  0
    3.5723    3.3000    0.0000 C   0  0  0  0  0  0  0  0  0  0  0  0
    4.2868    2.8875    0.0000 O   0  0  0  0  0  0  0  0  0  0  0  0
    5.0013    3.3000    0.0000 C   0  0  0  0  0  0  0  0  0  0  0  0
   -2.1435   -0.8250    0.0000 C   0  0  0  0  0  0  0  0  0  0  0  0
   -2.8579   -0.4125    0.0000 C   0  0  0  0  0  0  0  0  0  0  0  0
    0.7144   -4.9500    0.0000 O   0  0  0  0  0  0  0  0  0  0  0  0
   -0.0001   -5.3625    0.0000 C   0  0  0  0  0  0  0  0  0  0  0  0
    0.0000   -4.5375    0.0000 C   0  0  0  0  0  0  0  0  0  0  0  0
   -1.4289    0.4125    0.0000 C   0  0  0  0  0  0  0  0  0  0  0  0
    1.4289    0.4125    0.0000 C   0  0  0  0  0  0  0  0  0  0  0  0
   -1.4289    1.2375    0.0000 O   0  0  0  0  0  0  0  0  0  0  0  0
    1.4289    1.2375    0.0000 O   0  0  0  0  0  0  0  0  0  0  0  0
   -2.1434    0.8249    0.0000 C   0  0  0  0  0  0  0  0  0  0  0  0
    2.1434    0.8250    0.0000 C   0  0  0  0  0  0  0  0  0  0  0  0
  1 13  1  6
  1 54  1  0
 54 58  1  6
  2  1  1  0
  2 14  1  6
 54  3  1  0
  2  4  1  0
  4 16  1  6
  3  5  1  0
  5 19  1  6
  4  6  1  0
  6 21  1  1
  5  7  1  0
  7 25  2  3
  6  8  1  0
  8 28  2  0
  9  7  1  0
  9 32  1  1
  8 10  1  0
 11  9  1  0
 11 36  1  1
 12 10  1  0
 12 48  1  6
 53 12  1  0
 11 53  1  0
 53 57  1  6
 15 13  1  6
 15 17  1  0
 15 18  1  0
 20 16  1  6
 17 22  1  0
 17 23  1  1
 18 24  1  0
 20 26  1  0
 20 27  1  0
 22 29  1  0
 22 30  1  6
 24 31  1  6
 24 29  1  0
 25 41  1  0
 26 40  1  0
 27 33  1  0
 30 34  1  0
 30 35  1  0
 33 38  1  1
 33 37  1  0
 40 37  1  0
 37 39  1  6
 40 50  1  0
 40 52  1  1
 41 42  1  0
 42 43  1  0
 43 44  1  0
 44 45  1  0
 45 46  1  0
 46 47  1  0
 48 49  1  0
 50 51  1  0
 53 55  1  0
 54 56  1  0
M  END
$$$$
