918
     RDKit          2D

 23 25  0  0  0  0  0  0  0  0999 V2000
    3.6703   -0.5207    0.0000 S   0  0  0  0  0  0  0  0  0  0  0  0
    4.0828   -1.2351    0.0000 O   0  0  0  0  0  0  0  0  0  0  0  0
    3.2577    0.1938    0.0000 O   0  0  0  0  0  0  0  0  0  0  0  0
    2.9558   -0.9332    0.0000 N   0  0  0  0  0  0  0  0  0  0  0  0
    7.3088   -1.5972    0.0000 N   0  0  0  0  0  0  0  0  0  0  0  0
    8.6288    1.4693    0.0000 N   0  0  0  0  0  0  0  0  0  0  0  0
    2.8695   -1.7537    0.0000 C   0  0  0  0  0  0  0  0  0  0  0  0
    2.2021   -0.5976    0.0000 C   0  0  0  0  0  0  0  0  0  0  0  0
    2.0625   -1.9253    0.0000 C   0  0  0  0  0  0  0  0  0  0  0  0
    1.6500   -1.2107    0.0000 C   0  0  0  0  0  0  0  0  0  0  0  0
    4.3847   -0.1082    0.0000 C   0  0  0  0  0  0  0  0  0  0  0  0
    5.0993   -0.5207    0.0000 C   0  0  0  0  0  0  0  0  0  0  0  0
    6.5282   -0.5207    0.0000 C   0  0  0  0  0  0  0  0  0  0  0  0
    5.8137   -0.1082    0.0000 C   0  0  0  0  0  0  0  0  0  0  0  0
    7.3088   -0.2693    0.0000 C   0  0  0  0  0  0  0  0  0  0  0  0
    6.5282   -1.3457    0.0000 C   0  0  0  0  0  0  0  0  0  0  0  0
    5.0993   -1.3457    0.0000 C   0  0  0  0  0  0  0  0  0  0  0  0
    7.5652    0.5149    0.0000 C   0  0  0  0  0  0  0  0  0  0  0  0
    5.8137   -1.7582    0.0000 C   0  0  0  0  0  0  0  0  0  0  0  0
    7.7903   -0.9332    0.0000 C   0  0  0  0  0  0  0  0  0  0  0  0
    8.3724    0.6851    0.0000 C   0  0  0  0  0  0  0  0  0  0  0  0
    8.0778    2.0833    0.0000 C   0  0  0  0  0  0  0  0  0  0  0  0
    9.4361    1.6394    0.0000 C   0  0  0  0  0  0  0  0  0  0  0  0
  1  2  2  0
  1  3  2  0
  1  4  1  0
  1 11  1  0
  4  7  1  0
  4  8  1  0
  5 16  1  0
  5 20  1  0
  6 21  1  0
  6 22  1  0
  6 23  1  0
  7  9  1  0
  8 10  1  0
  9 10  1  0
 11 12  1  0
 12 14  2  0
 12 17  1  0
 13 14  1  0
 13 15  1  0
 13 16  2  0
 15 18  1  0
 15 20  2  0
 16 19  1  0
 17 19  2  0
 18 21  1  0
M  END
$$$$
