850
     RDKit          2D

 27 30  0  0  0  0  0  0  0  0999 V2000
    8.8480   -1.8712    0.0000 Cl  0  0  0  0  0  0  0  0  0  0  0  0
    5.9361   -3.5410    0.0000 S   0  0  0  0  0  0  0  0  0  0  0  0
    1.6498    3.0581    0.0000 O   0  0  0  0  0  0  0  0  0  0  0  0
    4.5073    0.5834    0.0000 N   0  0  0  0  0  0  0  0  0  0  0  0
    3.0786    1.4083    0.0000 N   0  0  0  0  0  0  0  0  0  0  0  0
    5.9361   -1.8912    0.0000 N   0  0  0  0  0  0  0  0  0  0  0  0
    3.7929    0.1710    0.0000 C   0  0  0  0  0  0  0  0  0  0  0  0
    4.5073    1.4083    0.0000 C   0  0  0  0  0  0  0  0  0  0  0  0
    3.0786    0.5834    0.0000 C   0  0  0  0  0  0  0  0  0  0  0  0
    3.7929    1.8208    0.0000 C   0  0  0  0  0  0  0  0  0  0  0  0
    5.2216    0.1710    0.0000 C   0  0  0  0  0  0  0  0  0  0  0  0
    5.2216   -0.6539    0.0000 C   0  0  0  0  0  0  0  0  0  0  0  0
    2.3641    1.8208    0.0000 C   0  0  0  0  0  0  0  0  0  0  0  0
    5.9361   -1.0664    0.0000 C   0  0  0  0  0  0  0  0  0  0  0  0
    2.3641    2.6456    0.0000 C   0  0  0  0  0  0  0  0  0  0  0  0
    6.6504   -2.3037    0.0000 C   0  0  0  0  0  0  0  0  0  0  0  0
    5.2216   -2.3037    0.0000 C   0  0  0  0  0  0  0  0  0  0  0  0
    6.6504   -3.1286    0.0000 C   0  0  0  0  0  0  0  0  0  0  0  0
    5.2216   -3.1286    0.0000 C   0  0  0  0  0  0  0  0  0  0  0  0
    7.3878   -1.8626    0.0000 C   0  0  0  0  0  0  0  0  0  0  0  0
    4.4843   -1.8626    0.0000 C   0  0  0  0  0  0  0  0  0  0  0  0
    7.3878   -3.5695    0.0000 C   0  0  0  0  0  0  0  0  0  0  0  0
    4.4843   -3.5695    0.0000 C   0  0  0  0  0  0  0  0  0  0  0  0
    8.1352   -2.2865    0.0000 C   0  0  0  0  0  0  0  0  0  0  0  0
    3.7368   -2.2865    0.0000 C   0  0  0  0  0  0  0  0  0  0  0  0
    8.1352   -3.1457    0.0000 C   0  0  0  0  0  0  0  0  0  0  0  0
    3.7368   -3.1457    0.0000 C   0  0  0  0  0  0  0  0  0  0  0  0
  1 24  1  0
  2 18  1  0
  2 19  1  0
  3 15  1  0
  4  7  1  0
  4  8  1  0
  4 11  1  0
  5  9  1  0
  5 10  1  0
  5 13  1  0
  6 14  1  0
  6 16  1  0
  6 17  1  0
  7  9  1  0
  8 10  1  0
 11 12  1  0
 12 14  1  0
 13 15  1  0
 16 18  2  0
 16 20  1  0
 17 19  2  0
 17 21  1  0
 18 22  1  0
 19 23  1  0
 20 24  2  0
 21 25  2  0
 22 26  2  0
 23 27  2  0
 24 26  1  0
 25 27  1  0
M  END
$$$$
