478
     RDKit          2D

 13 15  0  0  1  0  0  0  0  0999 V2000
    3.8090    1.3595    0.0000 N   0  0  0  0  0  0  0  0  0  0  0  0
    3.0823    0.1008    0.0000 C   0  0  0  0  0  0  0  0  0  0  0  0
    2.3806   -1.1146    0.0000 C   0  0  0  0  0  0  0  0  0  0  0  0
    2.5023   -1.4797    0.0000 C   0  0  0  0  0  0  0  0  0  0  0  0
    3.7840   -1.1146    0.0000 C   0  0  0  0  0  0  0  0  0  0  0  0
    2.3806   -0.3044    0.0000 C   0  0  0  0  0  0  0  0  0  0  0  0
    2.5023   -0.6026    0.0000 C   0  0  0  0  0  0  0  0  0  0  0  0
    3.7840   -0.3044    0.0000 C   0  0  0  0  0  0  0  0  0  0  0  0
    1.6783   -1.5197    0.0000 C   0  0  0  0  0  0  0  0  0  0  0  0
    3.0823   -1.3687    0.0000 C   0  0  0  0  0  0  0  0  0  0  0  0
    3.2623   -1.8799    0.0000 C   0  0  0  0  0  0  0  0  0  0  0  0
    3.0823    0.9399    0.0000 C   0  0  0  0  0  0  0  0  0  0  0  0
    2.3555    1.3595    0.0000 C   0  0  0  0  0  0  0  0  0  0  0  0
  1 12  1  0
  2  6  1  0
  2  7  1  0
  2  8  1  0
  2 12  1  0
  3  6  1  0
  3  9  1  0
  3 10  1  0
  4  7  1  0
  4  9  1  0
  4 11  1  0
  5  8  1  0
  5 10  1  0
  5 11  1  0
 12 13  1  0
M  END
$$$$
