822
     RDKit          2D

 16 15  0  0  0  0  0  0  0  0999 V2000
    5.2219    0.2063    0.0000 S   0  0  0  0  0  0  0  0  0  0  0  0
    4.5076   -0.2063    0.0000 S   0  0  0  0  0  0  0  0  0  0  0  0
    5.9365   -1.0312    0.0000 S   0  0  0  0  0  0  0  0  0  0  0  0
    3.7932    1.0312    0.0000 S   0  0  0  0  0  0  0  0  0  0  0  0
    6.6509    0.2063    0.0000 N   0  0  0  0  0  0  0  0  0  0  0  0
    3.0788   -0.2063    0.0000 N   0  0  0  0  0  0  0  0  0  0  0  0
    6.6509    1.0312    0.0000 C   0  0  0  0  0  0  0  0  0  0  0  0
    7.3652   -0.2063    0.0000 C   0  0  0  0  0  0  0  0  0  0  0  0
    3.0788   -1.0312    0.0000 C   0  0  0  0  0  0  0  0  0  0  0  0
    2.3643    0.2063    0.0000 C   0  0  0  0  0  0  0  0  0  0  0  0
    7.3652    1.4437    0.0000 C   0  0  0  0  0  0  0  0  0  0  0  0
    8.0797    0.2063    0.0000 C   0  0  0  0  0  0  0  0  0  0  0  0
    2.3643   -1.4437    0.0000 C   0  0  0  0  0  0  0  0  0  0  0  0
    1.6498   -0.2063    0.0000 C   0  0  0  0  0  0  0  0  0  0  0  0
    5.9365   -0.2063    0.0000 C   0  0  0  0  0  0  0  0  0  0  0  0
    3.7932    0.2063    0.0000 C   0  0  0  0  0  0  0  0  0  0  0  0
  1  2  1  0
  1 15  1  0
  2 16  1  0
  3 15  2  0
  4 16  2  0
  5  7  1  0
  5  8  1  0
  5 15  1  0
  6  9  1  0
  6 10  1  0
  6 16  1  0
  7 11  1  0
  8 12  1  0
  9 13  1  0
 10 14  1  0
M  END
$$$$
