839
     RDKit          2D

 21 22  0  0  0  0  0  0  0  0999 V2000
    4.5080   -1.3162    0.0000 S   0  0  0  0  0  0  0  0  0  0  0  0
    4.5080    0.3339    0.0000 O   0  0  0  0  0  0  0  0  0  0  0  0
    4.0955   -0.6017    0.0000 O   0  0  0  0  0  0  0  0  0  0  0  0
    4.9205   -2.0306    0.0000 O   0  0  0  0  0  0  0  0  0  0  0  0
    5.9370    1.1589    0.0000 N   0  0  0  0  0  0  0  0  0  0  0  0
    5.9370    0.3339    0.0000 N   0  0  0  0  0  0  0  0  0  0  0  0
    5.2224   -0.9036    0.0000 N   0  0  0  0  0  0  0  0  0  0  0  0
    5.5245    2.9662    0.0000 C   0  0  0  0  0  0  0  0  0  0  0  0
    6.3495    2.9662    0.0000 C   0  0  0  0  0  0  0  0  0  0  0  0
    5.0101    2.3212    0.0000 C   0  0  0  0  0  0  0  0  0  0  0  0
    6.8638    2.3212    0.0000 C   0  0  0  0  0  0  0  0  0  0  0  0
    5.1937    1.5169    0.0000 C   0  0  0  0  0  0  0  0  0  0  0  0
    6.6803    1.5169    0.0000 C   0  0  0  0  0  0  0  0  0  0  0  0
    5.2224   -0.0786    0.0000 C   0  0  0  0  0  0  0  0  0  0  0  0
    3.7935   -1.7287    0.0000 C   0  0  0  0  0  0  0  0  0  0  0  0
    3.0791   -1.3162    0.0000 C   0  0  0  0  0  0  0  0  0  0  0  0
    3.7935   -2.5537    0.0000 C   0  0  0  0  0  0  0  0  0  0  0  0
    2.3645   -2.5537    0.0000 C   0  0  0  0  0  0  0  0  0  0  0  0
    2.3645   -1.7287    0.0000 C   0  0  0  0  0  0  0  0  0  0  0  0
    3.0791   -2.9662    0.0000 C   0  0  0  0  0  0  0  0  0  0  0  0
    1.6500   -2.9662    0.0000 C   0  0  0  0  0  0  0  0  0  0  0  0
  1  3  2  0
  1  4  2  0
  1  7  1  0
  1 15  1  0
  2 14  2  0
  5  6  1  0
  5 12  1  0
  5 13  1  0
  6 14  1  0
  7 14  1  0
  8  9  1  0
  8 10  1  0
  9 11  1  0
 10 12  1  0
 11 13  1  0
 15 16  2  0
 15 17  1  0
 16 19  1  0
 17 20  2  0
 18 19  2  0
 18 20  1  0
 18 21  1  0
M  END
$$$$
