562
     RDKit          2D

 26 28  0  0  0  0  0  0  0  0999 V2000
    9.5636    1.0625    0.0000 Cl  0  0  0  0  0  0  0  0  0  0  0  0
    6.6513   -0.6074    0.0000 S   0  0  0  0  0  0  0  0  0  0  0  0
    9.5636   -0.6273    0.0000 S   0  0  0  0  0  0  0  0  0  0  0  0
    4.5079    0.6301    0.0000 S   0  0  0  0  0  0  0  0  0  0  0  0
    7.0638   -1.3219    0.0000 O   0  0  0  0  0  0  0  0  0  0  0  0
    6.2388   -1.3219    0.0000 O   0  0  0  0  0  0  0  0  0  0  0  0
    9.9789    0.0856    0.0000 O   0  0  0  0  0  0  0  0  0  0  0  0
    9.1484   -1.3402    0.0000 O   0  0  0  0  0  0  0  0  0  0  0  0
    6.6513    1.0426    0.0000 N   0  0  0  0  0  0  0  0  0  0  0  0
    5.9369   -0.1949    0.0000 N   0  0  0  0  0  0  0  0  0  0  0  0
   10.2765   -1.0426    0.0000 N   0  0  0  0  0  0  0  0  0  0  0  0
    7.3658   -0.1949    0.0000 C   0  0  0  0  0  0  0  0  0  0  0  0
    7.3658    0.6301    0.0000 C   0  0  0  0  0  0  0  0  0  0  0  0
    8.1032   -0.6360    0.0000 C   0  0  0  0  0  0  0  0  0  0  0  0
    8.8508   -0.2121    0.0000 C   0  0  0  0  0  0  0  0  0  0  0  0
    5.9369    0.6301    0.0000 C   0  0  0  0  0  0  0  0  0  0  0  0
    8.1032    1.0712    0.0000 C   0  0  0  0  0  0  0  0  0  0  0  0
    8.8508    0.6473    0.0000 C   0  0  0  0  0  0  0  0  0  0  0  0
    5.2223    1.0426    0.0000 C   0  0  0  0  0  0  0  0  0  0  0  0
    3.7934    1.0426    0.0000 C   0  0  0  0  0  0  0  0  0  0  0  0
    3.0790    0.6301    0.0000 C   0  0  0  0  0  0  0  0  0  0  0  0
    3.0790   -0.1949    0.0000 C   0  0  0  0  0  0  0  0  0  0  0  0
    2.3644    1.0426    0.0000 C   0  0  0  0  0  0  0  0  0  0  0  0
    2.3644   -0.6074    0.0000 C   0  0  0  0  0  0  0  0  0  0  0  0
    1.6500    0.6301    0.0000 C   0  0  0  0  0  0  0  0  0  0  0  0
    1.6500   -0.1949    0.0000 C   0  0  0  0  0  0  0  0  0  0  0  0
  1 18  1  0
  2  5  2  0
  2  6  2  0
  2 10  1  0
  2 12  1  0
  3  7  2  0
  3  8  2  0
  3 11  1  0
  3 15  1  0
  4 19  1  0
  4 20  1  0
  9 13  1  0
  9 16  1  0
 10 16  2  0
 12 13  2  0
 12 14  1  0
 13 17  1  0
 14 15  2  0
 15 18  1  0
 16 19  1  0
 17 18  2  0
 20 21  1  0
 21 22  2  0
 21 23  1  0
 22 24  1  0
 23 25  2  0
 24 26  2  0
 25 26  1  0
M  END
$$$$
