461
     RDKit          2D

 17 18  0  0  0  0  0  0  0  0999 V2000
    8.1336    1.2429    0.0000 O   0  0  0  0  0  0  0  0  0  0  0  0
    2.3641   -1.2516    0.0000 O   0  0  0  0  0  0  0  0  0  0  0  0
    4.5073   -0.0143    0.0000 C   0  0  0  0  0  0  0  0  0  0  0  0
    3.7929   -0.4267    0.0000 C   0  0  0  0  0  0  0  0  0  0  0  0
    5.9361   -0.0143    0.0000 C   0  0  0  0  0  0  0  0  0  0  0  0
    5.9361    0.8106    0.0000 C   0  0  0  0  0  0  0  0  0  0  0  0
    5.2216   -0.4267    0.0000 C   0  0  0  0  0  0  0  0  0  0  0  0
    3.0786   -0.0143    0.0000 C   0  0  0  0  0  0  0  0  0  0  0  0
    4.5073    0.8106    0.0000 C   0  0  0  0  0  0  0  0  0  0  0  0
    5.2216    1.2230    0.0000 C   0  0  0  0  0  0  0  0  0  0  0  0
    6.6734   -0.4553    0.0000 C   0  0  0  0  0  0  0  0  0  0  0  0
    6.6734    1.2516    0.0000 C   0  0  0  0  0  0  0  0  0  0  0  0
    7.4209    0.8278    0.0000 C   0  0  0  0  0  0  0  0  0  0  0  0
    7.4209   -0.0314    0.0000 C   0  0  0  0  0  0  0  0  0  0  0  0
    2.3641   -0.4267    0.0000 C   0  0  0  0  0  0  0  0  0  0  0  0
    1.6498   -0.0143    0.0000 C   0  0  0  0  0  0  0  0  0  0  0  0
    8.8496    0.8333    0.0000 C   0  0  0  0  0  0  0  0  0  0  0  0
  1 13  1  0
  1 17  1  0
  2 15  2  0
  3  4  1  0
  3  7  2  0
  3  9  1  0
  4  8  1  0
  5  6  2  0
  5  7  1  0
  5 11  1  0
  6 10  1  0
  6 12  1  0
  8 15  1  0
  9 10  2  0
 11 14  2  0
 12 13  2  0
 13 14  1  0
 15 16  1  0
M  END
$$$$
