
     RDKit          2D

 36 39  0  0  1  0  0  0  0  0999 V2000
   14.4461   -6.8427    0.0000 N   0  0  0  0  0  0  0  0  0  0  0  0
   15.2307   -5.7629    0.0000 S   0  0  0  0  0  0  0  0  0  0  0  0
   16.4301   -6.8427    0.0000 C   0  0  0  0  0  0  0  0  0  0  0  0
   15.7156   -6.4303    0.0000 C   0  0  0  0  0  0  0  0  0  0  0  0
   16.4301   -6.0178    0.0000 C   0  0  0  0  0  0  0  0  0  0  0  0
   15.2307   -7.0977    0.0000 C   0  0  0  0  0  0  0  0  0  0  0  0
   16.2926   -8.0538    0.0000 O   0  0  0  0  0  0  0  0  0  0  0  0
   15.4856   -7.8823    0.0000 C   0  0  0  0  0  0  0  0  0  0  0  0
   14.9336   -8.4954    0.0000 O   0  0  0  0  0  0  0  0  0  0  0  0
   13.6211   -6.0178    0.0000 C   0  0  0  0  0  0  0  0  0  0  0  0
   12.9067   -5.6053    0.0000 N   0  0  0  0  0  0  0  0  0  0  0  0
   12.1922   -6.0178    0.0000 C   0  0  0  0  0  0  0  0  0  0  0  0
   12.1922   -6.8427    0.0000 O   0  0  0  0  0  0  0  0  0  0  0  0
   11.4778   -5.6053    0.0000 C   0  0  0  0  0  0  0  0  0  0  0  0
   13.6211   -6.8427    0.0000 C   0  0  0  0  0  0  0  0  0  0  0  0
   13.0378   -7.4261    0.0000 O   0  0  0  0  0  0  0  0  0  0  0  0
   14.4461   -6.0178    0.0000 C   0  0  0  0  0  0  0  0  0  0  0  0
   11.4779   -4.7803    0.0000 C   0  0  0  0  0  0  0  0  0  0  0  0
   10.7633   -6.0178    0.0000 N   0  0  0  0  0  0  0  0  0  0  0  0
   11.4779   -3.1303    0.0000 C   0  0  0  0  0  0  0  0  0  0  0  0
   10.7634   -3.5428    0.0000 C   0  0  0  0  0  0  0  0  0  0  0  0
   10.7634   -4.3678    0.0000 C   0  0  0  0  0  0  0  0  0  0  0  0
   12.1924   -4.3678    0.0000 C   0  0  0  0  0  0  0  0  0  0  0  0
   12.1924   -3.5428    0.0000 C   0  0  0  0  0  0  0  0  0  0  0  0
   10.0489   -5.6053    0.0000 C   0  0  0  0  0  0  0  0  0  0  0  0
   10.0489   -4.7803    0.0000 O   0  0  0  0  0  0  0  0  0  0  0  0
    9.3344   -6.0178    0.0000 N   0  0  0  0  0  0  0  0  0  0  0  0
    8.6199   -5.6053    0.0000 C   0  0  0  0  0  0  0  0  0  0  0  0
    7.9054   -6.0178    0.0000 C   0  0  0  0  0  0  0  0  0  0  0  0
    7.9054   -6.8428    0.0000 N   0  0  0  0  0  0  0  0  0  0  0  0
    8.6199   -7.2553    0.0000 C   0  0  0  0  0  0  0  0  0  0  0  0
    9.3344   -6.8428    0.0000 C   0  0  0  0  0  0  0  0  0  0  0  0
    8.6199   -4.7803    0.0000 O   0  0  0  0  0  0  0  0  0  0  0  0
    7.1910   -5.6053    0.0000 O   0  0  0  0  0  0  0  0  0  0  0  0
    7.1910   -7.2553    0.0000 C   0  0  0  0  0  0  0  0  0  0  0  0
    6.4765   -6.8428    0.0000 C   0  0  0  0  0  0  0  0  0  0  0  0
 17 10  1  0
 10 15  1  0
 15  1  1  0
  1  6  1  0
 17  1  1  0
 17  2  1  1
  2  4  1  0
  6  4  1  0
  4  3  1  0
  4  5  1  0
  6  8  1  6
  8  7  1  0
  8  9  2  0
 10 11  1  1
 11 12  1  0
 12 14  1  0
 12 13  2  0
 15 16  2  0
 14 18  1  0
 14 19  1  6
 22 18  2  0
 18 23  1  0
 20 21  2  0
 21 22  1  0
 23 24  2  0
 20 24  1  0
 19 25  1  0
 25 26  2  0
 25 27  1  0
 32 27  1  0
 28 27  1  0
 28 29  1  0
 29 30  1  0
 30 31  1  0
 31 32  1  0
 28 33  2  0
 29 34  2  0
 30 35  1  0
 35 36  1  0
M  END
$$$$
