
     RDKit          2D

 28 30  0  0  0  0  0  0  0  0999 V2000
    2.9836   -1.8063    0.0000 C   0  0  0  0  0  0  0  0  0  0  0  0
    3.7068   -2.2034    0.0000 C   0  0  0  0  0  0  0  0  0  0  0  0
    4.4123   -1.7757    0.0000 C   0  0  0  0  0  0  0  0  0  0  0  0
    4.3947   -0.9509    0.0000 C   0  0  0  0  0  0  0  0  0  0  0  0
    3.6715   -0.5538    0.0000 C   0  0  0  0  0  0  0  0  0  0  0  0
    2.9660   -0.9815    0.0000 C   0  0  0  0  0  0  0  0  0  0  0  0
    2.2429   -0.5844    0.0000 C   0  0  0  0  0  0  0  0  0  0  0  0
    1.5373   -1.0121    0.0000 C   0  0  0  0  0  0  0  0  0  0  0  0
    1.5550   -1.8369    0.0000 C   0  0  0  0  0  0  0  0  0  0  0  0
    2.2782   -2.2340    0.0000 C   0  0  0  0  0  0  0  0  0  0  0  0
    0.7760   -2.1085    0.0000 C   0  0  0  0  0  0  0  0  0  0  0  0
    0.7474   -0.7740    0.0000 C   0  0  0  0  0  0  0  0  0  0  0  0
    0.2769   -1.4516    0.0000 C   0  0  0  0  0  0  0  0  0  0  0  0
    3.6538    0.2710    0.0000 O   0  0  0  0  0  0  0  0  0  0  0  0
    4.3593    0.6987    0.0000 C   0  0  0  0  0  0  0  0  0  0  0  0
    5.0824    0.3016    0.0000 C   0  0  0  0  0  0  0  0  0  0  0  0
    0.7936   -2.9333    0.0000 C   0  0  0  0  0  0  0  0  0  0  0  0
    0.0882   -3.3610    0.0000 C   0  0  0  0  0  0  0  0  0  0  0  0
   -0.6350   -2.9639    0.0000 C   0  0  0  0  0  0  0  0  0  0  0  0
   -1.3405   -3.3916    0.0000 C   0  0  0  0  0  0  0  0  0  0  0  0
   -2.0636   -2.9944    0.0000 C   0  0  0  0  0  0  0  0  0  0  0  0
   -2.7691   -3.4221    0.0000 C   0  0  0  0  0  0  0  0  0  0  0  0
   -3.4922   -3.0250    0.0000 C   0  0  0  0  0  0  0  0  0  0  0  0
   -4.1977   -3.4527    0.0000 C   0  0  0  0  0  0  0  0  0  0  0  0
    5.7879    0.7293    0.0000 O   0  0  0  0  0  0  0  0  0  0  0  0
    5.1001   -0.5232    0.0000 O   0  0  0  0  0  0  0  0  0  0  0  0
   -0.5479   -1.4692    0.0000 O   0  0  0  0  0  0  0  0  0  0  0  0
   -0.6526   -2.1391    0.0000 O   0  0  0  0  0  0  0  0  0  0  0  0
  1  2  2  0
  1  6  1  0
  1 10  1  0
  2  3  1  0
  3  4  2  0
  4  5  1  0
  5  6  2  0
  6  7  1  0
  8  7  1  6
  9 10  1  6
  8 12  1  0
  9  8  1  0
 11  9  1  0
 11 13  1  0
 12 13  1  0
  5 14  1  0
 14 15  1  0
 15 16  1  0
 11 17  1  1
 17 18  1  0
 18 19  1  0
 19 20  1  0
 20 21  1  0
 21 22  1  0
 22 23  1  0
 23 24  1  0
 16 25  1  0
 16 26  2  0
 13 27  1  6
 19 28  1  6
M  END
$$$$
