
     RDKit          2D

 30 35  0  0  1  0  0  0  0  0999 V2000
    9.3804   -5.1874    0.0000 C   0  0  0  0  0  0  0  0  0  0  0  0
    9.3762   -6.0125    0.0000 C   0  0  0  0  0  0  0  0  0  0  0  0
   10.0933   -5.5990    0.0000 O   0  0  0  0  0  0  0  0  0  0  0  0
    7.2303   -6.4185    0.0000 C   0  0  0  0  0  0  0  0  0  0  0  0
    7.2303   -7.2436    0.0000 C   0  0  0  0  0  0  0  0  0  0  0  0
    7.9466   -7.6561    0.0000 C   0  0  0  0  0  0  0  0  0  0  0  0
    7.9466   -6.0060    0.0000 C   0  0  0  0  0  0  0  0  0  0  0  0
    8.6586   -6.4185    0.0000 C   0  0  0  0  0  0  0  0  0  0  0  0
    8.6550   -7.2436    0.0000 C   0  0  0  0  0  0  0  0  0  0  0  0
    9.3677   -7.6590    0.0000 C   0  0  0  0  0  0  0  0  0  0  0  0
   10.0841   -7.2496    0.0000 C   0  0  0  0  0  0  0  0  0  0  0  0
   10.0841   -6.4263    0.0000 C   0  0  0  0  0  0  0  0  0  0  0  0
   10.0975   -4.7805    0.0000 C   0  0  0  0  0  0  0  0  0  0  0  0
   10.8067   -5.1978    0.0000 C   0  0  0  0  0  0  0  0  0  0  0  0
   10.8013   -6.0238    0.0000 C   0  0  0  0  0  0  0  0  0  0  0  0
   11.5853   -6.2841    0.0000 C   0  0  0  0  0  0  0  0  0  0  0  0
   12.0750   -5.6191    0.0000 C   0  0  0  0  0  0  0  0  0  0  0  0
   11.5937   -4.9466    0.0000 C   0  0  0  0  0  0  0  0  0  0  0  0
   12.4180   -4.9476    0.0000 O   0  0  0  0  0  0  0  0  0  0  0  0
   12.6736   -4.1638    0.0000 C   0  0  0  0  0  0  0  0  0  0  0  0
   12.0072   -3.6787    0.0000 C   0  0  0  0  0  0  0  0  0  0  0  0
   11.3398   -4.1624    0.0000 C   0  0  0  0  0  0  0  0  0  0  0  0
   13.4585   -3.9098    0.0000 O   0  0  0  0  0  0  0  0  0  0  0  0
   10.7976   -7.6636    0.0000 C   0  0  0  0  0  0  0  0  0  0  0  0
   10.7959   -8.4886    0.0000 O   0  0  0  0  0  0  0  0  0  0  0  0
   11.5130   -7.2527    0.0000 O   0  0  0  0  0  0  0  0  0  0  0  0
   12.2266   -7.6667    0.0000 C   0  0  0  0  0  0  0  0  0  0  0  0
    6.5161   -7.6564    0.0000 O   0  0  0  0  0  0  0  0  0  0  0  0
    8.6512   -5.5935    0.0000 C   0  0  0  0  0  0  0  0  0  0  0  0
   10.8013   -4.3726    0.0000 C   0  0  0  0  0  0  0  0  0  0  0  0
  8  7  1  0
  7  4  1  0
 14 15  1  0
 15 16  1  1
 16 17  1  0
 18 17  1  6
 18 14  1  0
  1  2  1  0
  1  3  1  0
  2  3  1  6
  8  9  1  0
  9 10  1  0
 18 19  1  0
 19 20  1  0
 20 21  1  0
 21 22  1  0
 18 22  1  0
 10 11  1  0
 20 23  2  0
 12 11  1  6
 11 24  1  6
  2  8  1  0
 24 25  2  0
  4  5  1  0
 24 26  1  0
  5  6  1  0
 26 27  1  0
  2 12  1  0
  5 28  2  0
 12 15  1  0
  8 29  1  1
 14 13  1  0
  1 13  1  1
 14 30  1  1
  6  9  2  0
M  END
$$$$
