905
     RDKit          2D

 30 31  0  0  1  0  0  0  0  0999 V2000
    8.8251    2.3606    0.0000 O   0  0  0  0  0  0  0  0  0  0  0  0
    8.5216   -0.5276    0.0000 O   0  0  0  0  0  0  0  0  0  0  0  0
    5.4529   -0.6226    0.0000 O   0  0  0  0  0  0  0  0  0  0  0  0
    4.0040    4.7477    0.0000 O   0  0  0  0  0  0  0  0  0  0  0  0
    3.0478    3.6858    0.0000 N   0  0  0  0  0  0  0  0  0  0  0  0
    7.6826    1.4354    0.0000 C   0  0  0  0  0  0  0  0  0  0  0  0
    7.5964    0.6149    0.0000 C   0  0  0  0  0  0  0  0  0  0  0  0
    8.4896    1.6070    0.0000 C   0  0  0  0  0  0  0  0  0  0  0  0
    8.3501    0.2794    0.0000 C   0  0  0  0  0  0  0  0  0  0  0  0
    8.9021    0.8925    0.0000 C   0  0  0  0  0  0  0  0  0  0  0  0
    7.0695    1.9875    0.0000 C   0  0  0  0  0  0  0  0  0  0  0  0
    6.8819    0.2024    0.0000 C   0  0  0  0  0  0  0  0  0  0  0  0
    7.2410    2.7944    0.0000 C   0  0  0  0  0  0  0  0  0  0  0  0
    6.8819   -0.6226    0.0000 C   0  0  0  0  0  0  0  0  0  0  0  0
    6.1674   -1.0352    0.0000 C   0  0  0  0  0  0  0  0  0  0  0  0
    6.6279    3.3465    0.0000 C   0  0  0  0  0  0  0  0  0  0  0  0
    6.1674   -1.8602    0.0000 C   0  0  0  0  0  0  0  0  0  0  0  0
    5.8433    3.0916    0.0000 C   0  0  0  0  0  0  0  0  0  0  0  0
    5.4529   -2.2727    0.0000 C   0  0  0  0  0  0  0  0  0  0  0  0
    5.2302    3.6436    0.0000 C   0  0  0  0  0  0  0  0  0  0  0  0
    5.4529   -3.0977    0.0000 C   0  0  0  0  0  0  0  0  0  0  0  0
    4.4455    3.3887    0.0000 C   0  0  0  0  0  0  0  0  0  0  0  0
    6.1674   -3.5102    0.0000 C   0  0  0  0  0  0  0  0  0  0  0  0
    4.7384   -3.5102    0.0000 C   0  0  0  0  0  0  0  0  0  0  0  0
    3.8325    3.9407    0.0000 C   0  0  0  0  0  0  0  0  0  0  0  0
    6.1674   -4.3352    0.0000 C   0  0  0  0  0  0  0  0  0  0  0  0
    4.7384   -4.3352    0.0000 C   0  0  0  0  0  0  0  0  0  0  0  0
    5.4529   -4.7477    0.0000 C   0  0  0  0  0  0  0  0  0  0  0  0
    2.4347    4.2378    0.0000 C   0  0  0  0  0  0  0  0  0  0  0  0
    1.6500    3.9829    0.0000 C   0  0  0  0  0  0  0  0  0  0  0  0
  8  1  1  1
  9  2  1  1
 15  3  1  6
  4 25  2  0
  5 25  1  0
  5 29  1  0
  6  7  1  0
  6  8  1  0
  6 11  1  1
  7  9  1  0
  7 12  1  6
  8 10  1  0
  9 10  1  0
 11 13  1  0
 12 14  2  0
 13 16  2  0
 14 15  1  0
 15 17  1  0
 16 18  1  0
 17 19  1  0
 18 20  1  0
 19 21  1  0
 20 22  1  0
 21 23  2  0
 21 24  1  0
 22 25  1  0
 23 26  1  0
 24 27  2  0
 26 28  2  0
 27 28  1  0
 29 30  1  0
M  END
$$$$
