
     RDKit          2D

 19 20  0  0  1  0  0  0  0  0999 V2000
   16.8537   -6.8636    0.0000 C   0  0  0  0  0  0  0  0  0  0  0  0
   16.8537   -6.0579    0.0000 C   0  0  0  0  0  0  0  0  0  0  0  0
   16.1375   -7.2933    0.0000 S   0  0  0  0  0  0  0  0  0  0  0  0
   17.6415   -7.1322    0.0000 S   0  0  0  0  0  0  0  0  0  0  0  0
   16.1375   -5.6460    0.0000 C   0  0  0  0  0  0  0  0  0  0  0  0
   17.6415   -5.7893    0.0000 C   0  0  0  0  0  0  0  0  0  0  0  0
   15.4213   -6.8636    0.0000 C   0  0  0  0  0  0  0  0  0  0  0  0
   15.7257   -7.9916    0.0000 O   0  0  0  0  0  0  0  0  0  0  0  0
   16.5135   -7.9916    0.0000 O   0  0  0  0  0  0  0  0  0  0  0  0
   18.1071   -6.4697    0.0000 C   0  0  0  0  0  0  0  0  0  0  0  0
   15.4213   -6.0579    0.0000 C   0  0  0  0  0  0  0  0  0  0  0  0
   16.1375   -4.8045    0.0000 N   0  0  0  0  0  0  0  0  0  0  0  0
   14.7230   -7.2933    0.0000 C   0  0  0  0  0  0  0  0  0  0  0  0
   18.9307   -6.4697    0.0000 S   0  0  0  0  0  0  0  0  0  0  0  0
   19.3425   -7.1859    0.0000 N   0  0  0  0  0  0  0  0  0  0  0  0
   18.9307   -5.6460    0.0000 O   0  0  0  0  0  0  0  0  0  0  0  0
   19.6469   -6.0758    0.0000 O   0  0  0  0  0  0  0  0  0  0  0  0
   15.4182   -4.3995    0.0000 C   0  0  0  0  0  0  0  0  0  0  0  0
   14.7072   -4.8202    0.0000 C   0  0  0  0  0  0  0  0  0  0  0  0
  2  1  2  0
  3  1  1  0
  4  1  1  0
  5  2  1  0
  6  2  1  0
  7  3  1  0
  8  3  2  0
  9  3  2  0
 10  4  1  0
 11  5  1  0
  5 12  1  6
 10  6  2  0
  7 13  1  1
 11  7  1  0
 14 10  1  0
 15 14  1  0
 16 14  2  0
 17 14  2  0
 12 18  1  0
 18 19  1  0
M  END
$$$$
