
     RDKit          2D

 16 16  0  0  0  0  0  0  0  0999 V2000
   -0.3528    0.0645    0.0000 C   0  0  0  0  0  0  0  0  0  0  0  0
   -0.3528   -0.7605    0.0000 C   0  0  0  0  0  0  0  0  0  0  0  0
   -1.0686    0.4821    0.0000 C   0  0  0  0  0  0  0  0  0  0  0  0
   -1.0686   -1.1681    0.0000 C   0  0  0  0  0  0  0  0  0  0  0  0
   -1.7844    0.0645    0.0000 C   0  0  0  0  0  0  0  0  0  0  0  0
   -1.7844   -0.7605    0.0000 C   0  0  0  0  0  0  0  0  0  0  0  0
   -2.5001    0.4821    0.0000 O   0  0  0  0  0  0  0  0  0  0  0  0
   -2.5001   -1.1681    0.0000 O   0  0  0  0  0  0  0  0  0  0  0  0
    0.3628    0.4821    0.0000 C   0  0  0  0  0  0  0  0  0  0  0  0
    1.0785    0.0745    0.0000 C   0  0  0  0  0  0  0  0  0  0  0  0
    1.7943    0.4821    0.0000 C   0  0  0  0  0  0  0  0  0  0  0  0
    2.5001    0.0745    0.0000 O   0  0  0  0  0  0  0  0  0  0  0  0
    1.7943    1.3072    0.0000 O   0  0  0  0  0  0  0  0  0  0  0  0
    0.5020   -0.5219    0.0000 C   0  0  0  0  0  0  0  0  0  0  0  0
    1.6651   -0.5119    0.0000 N   0  0  0  0  0  0  0  0  0  0  0  0
    1.4563   -1.3073    0.0000 N   0  0  0  0  0  0  0  0  0  0  0  0
  2  1  2  0
  3  1  1  0
  9  1  1  0
  4  2  1  0
  5  3  2  0
  6  4  2  0
  6  5  1  0
  7  5  1  0
  8  6  1  0
 10  9  1  0
 10 11  1  0
 10 14  1  6
 10 15  1  0
 12 11  1  0
 13 11  2  0
 16 15  1  0
M  END
$$$$
