573
     RDKit          2D

 18 19  0  0  1  0  0  0  0  0999 V2000
    2.3645   -0.7466    0.0000 O   0  0  0  0  0  0  0  0  0  0  0  0
    4.5080    2.9659    0.0000 O   0  0  0  0  0  0  0  0  0  0  0  0
    5.2224    1.7284    0.0000 O   0  0  0  0  0  0  0  0  0  0  0  0
    3.7935    1.7284    0.0000 C   0  0  0  0  0  0  0  0  0  0  0  0
    3.7935    0.9034    0.0000 C   0  0  0  0  0  0  0  0  0  0  0  0
    3.0791    0.4909    0.0000 C   0  0  0  0  0  0  0  0  0  0  0  0
    3.0791    2.1409    0.0000 C   0  0  0  0  0  0  0  0  0  0  0  0
    4.5080    0.4909    0.0000 C   0  0  0  0  0  0  0  0  0  0  0  0
    3.0791   -0.3341    0.0000 C   0  0  0  0  0  0  0  0  0  0  0  0
    4.5080    2.1409    0.0000 C   0  0  0  0  0  0  0  0  0  0  0  0
    4.5080   -0.3341    0.0000 C   0  0  0  0  0  0  0  0  0  0  0  0
    3.7935   -0.7466    0.0000 C   0  0  0  0  0  0  0  0  0  0  0  0
    2.3645   -1.5717    0.0000 C   0  0  0  0  0  0  0  0  0  0  0  0
    3.0791   -1.9842    0.0000 C   0  0  0  0  0  0  0  0  0  0  0  0
    1.6500   -1.9842    0.0000 C   0  0  0  0  0  0  0  0  0  0  0  0
    3.0791   -2.8092    0.0000 C   0  0  0  0  0  0  0  0  0  0  0  0
    1.6500   -2.8092    0.0000 C   0  0  0  0  0  0  0  0  0  0  0  0
    2.3645   -3.2217    0.0000 C   0  0  0  0  0  0  0  0  0  0  0  0
  1  9  1  0
  1 13  1  0
  2 10  1  0
  3 10  2  0
  4  5  1  0
  4  7  1  0
  4 10  1  0
  5  6  2  0
  5  8  1  0
  6  9  1  0
  8 11  2  0
  9 12  2  0
 11 12  1  0
 13 14  2  0
 13 15  1  0
 14 16  1  0
 15 17  2  0
 16 18  2  0
 17 18  1  0
M  END
$$$$
