248
     RDKit          2D

 33 36  0  0  1  0  0  0  0  0999 V2000
    2.3788   -0.1484    0.0000 O   0  0  0  0  0  0  0  0  0  0  0  0
    1.6596    1.0864    0.0000 O   0  0  0  0  0  0  0  0  0  0  0  0
    5.2928   -0.1486    0.0000 N   0  0  0  0  0  0  0  0  0  0  0  0
    6.2679   -3.5446    0.0000 N   0  0  0  0  0  0  0  0  0  0  0  0
    3.0885    1.0919    0.0000 N   0  0  0  0  0  0  0  0  0  0  0  0
    2.3692    2.3266    0.0000 N   0  0  0  0  0  0  0  0  0  0  0  0
    4.5079    3.5723    0.0000 N   0  0  0  0  0  0  0  0  0  0  0  0
    4.5651   -1.4203    0.0000 C   0  0  0  0  0  0  0  0  0  0  0  0
    5.2796   -1.0078    0.0000 C   0  0  0  0  0  0  0  0  0  0  0  0
    3.8143   -1.0022    0.0000 C   0  0  0  0  0  0  0  0  0  0  0  0
    3.8077   -0.1429    0.0000 C   0  0  0  0  0  0  0  0  0  0  0  0
    5.9940   -1.4203    0.0000 C   0  0  0  0  0  0  0  0  0  0  0  0
    4.5519    0.2868    0.0000 C   0  0  0  0  0  0  0  0  0  0  0  0
    4.5651   -2.2453    0.0000 C   0  0  0  0  0  0  0  0  0  0  0  0
    5.2796   -2.6578    0.0000 C   0  0  0  0  0  0  0  0  0  0  0  0
    5.9940   -2.2453    0.0000 C   0  0  0  0  0  0  0  0  0  0  0  0
    6.0120    0.2556    0.0000 C   0  0  0  0  0  0  0  0  0  0  0  0
    3.0917    0.2669    0.0000 C   0  0  0  0  0  0  0  0  0  0  0  0
    5.2928   -3.5171    0.0000 C   0  0  0  0  0  0  0  0  0  0  0  0
    3.8143   -2.6635    0.0000 C   0  0  0  0  0  0  0  0  0  0  0  0
    6.6021   -2.7957    0.0000 C   0  0  0  0  0  0  0  0  0  0  0  0
    4.5519   -3.9525    0.0000 C   0  0  0  0  0  0  0  0  0  0  0  0
    3.8077   -3.5228    0.0000 C   0  0  0  0  0  0  0  0  0  0  0  0
    6.0215    1.0806    0.0000 C   0  0  0  0  0  0  0  0  0  0  0  0
    3.8014    1.5071    0.0000 C   0  0  0  0  0  0  0  0  0  0  0  0
    2.3725    1.5016    0.0000 C   0  0  0  0  0  0  0  0  0  0  0  0
    3.7981    2.3321    0.0000 C   0  0  0  0  0  0  0  0  0  0  0  0
    6.7407    1.4848    0.0000 C   0  0  0  0  0  0  0  0  0  0  0  0
    4.5110    2.7473    0.0000 C   0  0  0  0  0  0  0  0  0  0  0  0
    1.6532    2.7364    0.0000 C   0  0  0  0  0  0  0  0  0  0  0  0
    5.2208    3.9876    0.0000 C   0  0  0  0  0  0  0  0  0  0  0  0
    3.7918    3.9821    0.0000 C   0  0  0  0  0  0  0  0  0  0  0  0
    1.6500    3.5614    0.0000 C   0  0  0  0  0  0  0  0  0  0  0  0
  1 18  2  0
  2 26  2  0
  3  9  1  0
  3 13  1  0
  3 17  1  0
  4 19  1  0
  4 21  1  0
  5 18  1  0
  5 25  1  0
  5 26  1  0
  6 26  1  0
  6 30  1  0
  7 29  1  0
  7 31  1  0
  7 32  1  0
  8  9  1  0
  8 10  1  1
  8 14  1  0
  9 12  1  6
 10 11  1  0
 11 13  1  0
 11 18  1  1
 12 16  1  0
 14 15  2  0
 14 20  1  0
 15 16  1  0
 15 19  1  0
 16 21  2  0
 17 24  1  0
 19 22  2  0
 20 23  2  0
 22 23  1  0
 24 28  2  3
 25 27  1  0
 27 29  1  0
 30 33  1  0
M  END
$$$$
