810
     RDKit          2D

 23 26  0  0  1  0  0  0  0  0999 V2000
    6.1299    0.0101    0.0000 O   0  0  0  0  0  0  0  0  0  0  0  0
    3.2719   -0.8149    0.0000 N   0  0  0  0  0  0  0  0  0  0  0  0
    5.0029    0.3122    0.0000 C   0  0  0  0  0  0  0  0  0  0  0  0
    3.4916    0.9382    0.0000 C   0  0  0  0  0  0  0  0  0  0  0  0
    3.7051    1.7351    0.0000 C   0  0  0  0  0  0  0  0  0  0  0  0
    5.2164    1.1091    0.0000 C   0  0  0  0  0  0  0  0  0  0  0  0
    3.0974    2.5458    0.0000 C   0  0  0  0  0  0  0  0  0  0  0  0
    5.4154   -0.4024    0.0000 C   0  0  0  0  0  0  0  0  0  0  0  0
    2.0625    0.1132    0.0000 C   0  0  0  0  0  0  0  0  0  0  0  0
    1.6500    0.8277    0.0000 C   0  0  0  0  0  0  0  0  0  0  0  0
    4.7010   -0.8149    0.0000 C   0  0  0  0  0  0  0  0  0  0  0  0
    5.8279   -1.1168    0.0000 C   0  0  0  0  0  0  0  0  0  0  0  0
    3.9865   -0.4024    0.0000 C   0  0  0  0  0  0  0  0  0  0  0  0
    6.6529   -1.1168    0.0000 C   0  0  0  0  0  0  0  0  0  0  0  0
    5.4154   -1.8313    0.0000 C   0  0  0  0  0  0  0  0  0  0  0  0
    2.5575   -0.4024    0.0000 C   0  0  0  0  0  0  0  0  0  0  0  0
    3.2719   -1.6399    0.0000 C   0  0  0  0  0  0  0  0  0  0  0  0
    1.8430   -0.8149    0.0000 C   0  0  0  0  0  0  0  0  0  0  0  0
    2.5575   -2.0524    0.0000 C   0  0  0  0  0  0  0  0  0  0  0  0
    1.8430   -1.6399    0.0000 C   0  0  0  0  0  0  0  0  0  0  0  0
    7.0655   -1.8313    0.0000 C   0  0  0  0  0  0  0  0  0  0  0  0
    5.8279   -2.5458    0.0000 C   0  0  0  0  0  0  0  0  0  0  0  0
    6.6529   -2.5458    0.0000 C   0  0  0  0  0  0  0  0  0  0  0  0
  1  8  1  0
  2 13  1  0
  2 16  1  0
  2 17  1  0
  3  4  1  0
  3  6  1  0
  3  8  1  0
  4  7  1  0
  4  9  1  0
  5  6  1  0
  5  7  1  0
  5 10  1  0
  8 11  1  0
  8 12  1  0
  9 10  2  0
 11 13  1  0
 12 14  2  0
 12 15  1  0
 14 21  1  0
 15 22  2  0
 16 18  1  0
 17 19  1  0
 18 20  1  0
 19 20  1  0
 21 23  2  0
 22 23  1  0
M  END
$$$$
