772
     RDKit          2D

 19 18  0  0  1  0  0  0  0  0999 V2000
    3.7935    1.3481    0.0000 S   0  0  0  0  0  0  0  0  0  0  0  0
    3.4916    0.2210    0.0000 S   0  0  0  0  0  0  0  0  0  0  0  0
    3.0791    0.9356    0.0000 P   0  0  0  0  0  0  0  0  0  0  0  0
    5.9370    0.9356    0.0000 O   0  0  0  0  0  0  0  0  0  0  0  0
    5.2224   -1.1270    0.0000 O   0  0  0  0  0  0  0  0  0  0  0  0
    2.3645    0.5231    0.0000 O   0  0  0  0  0  0  0  0  0  0  0  0
    2.6665    1.6500    0.0000 O   0  0  0  0  0  0  0  0  0  0  0  0
    5.2224    2.1731    0.0000 O   0  0  0  0  0  0  0  0  0  0  0  0
    5.9370    0.1106    0.0000 O   0  0  0  0  0  0  0  0  0  0  0  0
    4.5080    0.9356    0.0000 C   0  0  0  0  0  0  0  0  0  0  0  0
    4.5080    0.1106    0.0000 C   0  0  0  0  0  0  0  0  0  0  0  0
    5.2224    1.3481    0.0000 C   0  0  0  0  0  0  0  0  0  0  0  0
    5.2224   -0.3020    0.0000 C   0  0  0  0  0  0  0  0  0  0  0  0
    6.6515    1.3481    0.0000 C   0  0  0  0  0  0  0  0  0  0  0  0
    5.9370   -1.5395    0.0000 C   0  0  0  0  0  0  0  0  0  0  0  0
    7.3659    0.9356    0.0000 C   0  0  0  0  0  0  0  0  0  0  0  0
    5.9370   -2.3645    0.0000 C   0  0  0  0  0  0  0  0  0  0  0  0
    1.6500    0.9356    0.0000 C   0  0  0  0  0  0  0  0  0  0  0  0
    3.0791    2.3645    0.0000 C   0  0  0  0  0  0  0  0  0  0  0  0
  1  3  1  0
  1 10  1  0
  2  3  2  0
  3  6  1  0
  3  7  1  0
  4 12  1  0
  4 14  1  0
  5 13  1  0
  5 15  1  0
  6 18  1  0
  7 19  1  0
  8 12  2  0
  9 13  2  0
 10 11  1  0
 10 12  1  0
 11 13  1  0
 14 16  1  0
 15 17  1  0
M  END
$$$$
