305
     RDKit          2D

 24 27  0  0  1  0  0  0  0  0999 V2000
    5.8626    0.8985    0.0000 O   0  0  0  0  0  0  0  0  0  0  0  0
    5.0865   -0.8173    0.0000 O   0  0  0  0  0  0  0  0  0  0  0  0
    2.7859    2.3617    0.0000 O   0  0  0  0  0  0  0  0  0  0  0  0
    3.8230   -0.8206    0.0000 O   0  0  0  0  0  0  0  0  0  0  0  0
    6.3910   -1.4007    0.0000 O   0  0  0  0  0  0  0  0  0  0  0  0
    6.4150    2.4816    0.0000 N   0  0  0  0  0  0  0  0  0  0  0  0
    4.5276    1.8684    0.0000 N   0  0  0  0  0  0  0  0  0  0  0  0
    2.1720   -0.4845    0.0000 N   0  0  0  0  0  0  0  0  0  0  0  0
    5.2334   -2.2387    0.0000 N   0  0  0  0  0  0  0  0  0  0  0  0
    5.8626    1.8684    0.0000 C   0  0  0  0  0  0  0  0  0  0  0  0
    5.1951    1.3835    0.0000 C   0  0  0  0  0  0  0  0  0  0  0  0
    5.6076    2.6530    0.0000 C   0  0  0  0  0  0  0  0  0  0  0  0
    4.7826    2.6530    0.0000 C   0  0  0  0  0  0  0  0  0  0  0  0
    4.9396    0.6041    0.0000 C   0  0  0  0  0  0  0  0  0  0  0  0
    3.8654    1.3846    0.0000 C   0  0  0  0  0  0  0  0  0  0  0  0
    4.1195    0.6048    0.0000 C   0  0  0  0  0  0  0  0  0  0  0  0
    5.4234   -0.0642    0.0000 C   0  0  0  0  0  0  0  0  0  0  0  0
    3.0324    1.5744    0.0000 C   0  0  0  0  0  0  0  0  0  0  0  0
    3.5583   -0.0393    0.0000 C   0  0  0  0  0  0  0  0  0  0  0  0
    6.6162    1.2341    0.0000 C   0  0  0  0  0  0  0  0  0  0  0  0
    2.4565    0.9434    0.0000 C   0  0  0  0  0  0  0  0  0  0  0  0
    2.7211    0.1312    0.0000 C   0  0  0  0  0  0  0  0  0  0  0  0
    1.6500    1.1174    0.0000 C   0  0  0  0  0  0  0  0  0  0  0  0
    5.5703   -1.4856    0.0000 C   0  0  0  0  0  0  0  0  0  0  0  0
 11  1  1  1
  1 20  1  0
  2 17  1  0
  2 24  1  0
  3 18  2  0
  4 19  2  0
  5 24  2  0
 10  6  1  6
 12  6  1  0
  7 11  1  0
  7 13  1  0
  7 15  1  0
  8 22  1  0
  9 24  1  0
 10 11  1  0
 10 12  1  0
 11 14  1  0
 12 13  1  6
 14 16  1  0
 14 17  1  6
 15 16  2  0
 15 18  1  0
 16 19  1  0
 18 21  1  0
 19 22  1  0
 21 22  2  0
 21 23  1  0
M  END
$$$$
