715
     RDKit          2D

 24 27  0  0  1  0  0  0  0  0999 V2000
    2.3645   -2.7308    0.0000 F   0  0  0  0  0  0  0  0  0  0  0  0
    4.5080    0.9818    0.0000 O   0  0  0  0  0  0  0  0  0  0  0  0
    7.4321    0.8206    0.0000 O   0  0  0  0  0  0  0  0  0  0  0  0
    7.4321   -0.5071    0.0000 O   0  0  0  0  0  0  0  0  0  0  0  0
    2.3645    2.2193    0.0000 N   0  0  0  0  0  0  0  0  0  0  0  0
    2.3645    0.5693    0.0000 C   0  0  0  0  0  0  0  0  0  0  0  0
    3.0791    0.9818    0.0000 C   0  0  0  0  0  0  0  0  0  0  0  0
    1.6500    0.9818    0.0000 C   0  0  0  0  0  0  0  0  0  0  0  0
    3.0791    1.8068    0.0000 C   0  0  0  0  0  0  0  0  0  0  0  0
    1.6500    1.8068    0.0000 C   0  0  0  0  0  0  0  0  0  0  0  0
    3.7935    0.5693    0.0000 C   0  0  0  0  0  0  0  0  0  0  0  0
    2.3645   -0.2558    0.0000 C   0  0  0  0  0  0  0  0  0  0  0  0
    3.0791   -0.6683    0.0000 C   0  0  0  0  0  0  0  0  0  0  0  0
    1.6500   -0.6683    0.0000 C   0  0  0  0  0  0  0  0  0  0  0  0
    3.0791   -1.4933    0.0000 C   0  0  0  0  0  0  0  0  0  0  0  0
    1.6500   -1.4933    0.0000 C   0  0  0  0  0  0  0  0  0  0  0  0
    5.2224    0.5693    0.0000 C   0  0  0  0  0  0  0  0  0  0  0  0
    2.3645   -1.9058    0.0000 C   0  0  0  0  0  0  0  0  0  0  0  0
    5.9370    0.9818    0.0000 C   0  0  0  0  0  0  0  0  0  0  0  0
    5.2224   -0.2558    0.0000 C   0  0  0  0  0  0  0  0  0  0  0  0
    6.6515    0.5693    0.0000 C   0  0  0  0  0  0  0  0  0  0  0  0
    6.6515   -0.2558    0.0000 C   0  0  0  0  0  0  0  0  0  0  0  0
    5.9370   -0.6683    0.0000 C   0  0  0  0  0  0  0  0  0  0  0  0
    7.9136    0.1568    0.0000 C   0  0  0  0  0  0  0  0  0  0  0  0
  1 18  1  0
  2 11  1  0
  2 17  1  0
  3 21  1  0
  3 24  1  0
  4 22  1  0
  4 24  1  0
  5  9  1  0
  5 10  1  0
  6  7  1  0
  6  8  1  0
  6 12  1  6
  7  9  1  0
  7 11  1  1
  8 10  1  0
 12 13  2  0
 12 14  1  0
 13 15  1  0
 14 16  2  0
 15 18  2  0
 16 18  1  0
 17 19  1  0
 17 20  2  0
 19 21  2  0
 20 23  1  0
 21 22  1  0
 22 23  2  0
M  END
$$$$
