419
     RDKit          2D

 15 15  0  0  1  0  0  0  0  0999 V2000
    4.9509   -1.5222    0.0000 O   0  0  0  0  0  0  0  0  0  0  0  0
    3.5220   -2.3472    0.0000 O   0  0  0  0  0  0  0  0  0  0  0  0
    2.0930   -1.5222    0.0000 O   0  0  0  0  0  0  0  0  0  0  0  0
    4.9509    0.9529    0.0000 O   0  0  0  0  0  0  0  0  0  0  0  0
    3.5220    0.1279    0.0000 N   0  0  0  0  0  0  0  0  0  0  0  0
    4.2365   -0.2846    0.0000 C   0  0  0  0  0  0  0  0  0  0  0  0
    4.2365   -1.1096    0.0000 C   0  0  0  0  0  0  0  0  0  0  0  0
    3.5220   -1.5222    0.0000 C   0  0  0  0  0  0  0  0  0  0  0  0
    2.8075   -1.1096    0.0000 C   0  0  0  0  0  0  0  0  0  0  0  0
    2.8075   -0.2846    0.0000 C   0  0  0  0  0  0  0  0  0  0  0  0
    3.5220    0.9529    0.0000 C   0  0  0  0  0  0  0  0  0  0  0  0
    4.9509    0.1279    0.0000 C   0  0  0  0  0  0  0  0  0  0  0  0
    2.8075    1.3654    0.0000 C   0  0  0  0  0  0  0  0  0  0  0  0
    2.8075    2.1904    0.0000 C   0  0  0  0  0  0  0  0  0  0  0  0
    2.0930    2.6029    0.0000 C   0  0  0  0  0  0  0  0  0  0  0  0
  7  1  1  1
  8  2  1  6
  9  3  1  1
  4 12  1  0
  5  6  1  0
  5 10  1  0
  5 11  1  0
  6  7  1  0
  6 12  1  6
  7  8  1  0
  8  9  1  0
  9 10  1  0
 11 13  1  0
 13 14  1  0
 14 15  1  0
M  END
$$$$
