479
     RDKit          2D

 40 42  0  0  1  0  0  0  0  0999 V2000
    5.6655    1.5226    0.0000 O   0  0  0  0  0  0  0  0  0  0  0  0
    7.0944   -0.9525    0.0000 O   0  0  0  0  0  0  0  0  0  0  0  0
    7.0944    0.6976    0.0000 O   0  0  0  0  0  0  0  0  0  0  0  0
    7.0944    1.5226    0.0000 O   0  0  0  0  0  0  0  0  0  0  0  0
    7.0945   -2.3814    0.0000 O   0  0  0  0  0  0  0  0  0  0  0  0
    5.6655    3.1726    0.0000 O   0  0  0  0  0  0  0  0  0  0  0  0
    8.7444   -0.9525    0.0000 O   0  0  0  0  0  0  0  0  0  0  0  0
    8.5234    3.1726    0.0000 O   0  0  0  0  0  0  0  0  0  0  0  0
    9.5695   -2.3814    0.0000 O   0  0  0  0  0  0  0  0  0  0  0  0
    8.7445   -3.8103    0.0000 O   0  0  0  0  0  0  0  0  0  0  0  0
    2.8075    0.6976    0.0000 O   0  0  0  0  0  0  0  0  0  0  0  0
    8.5234    0.6976    0.0000 O   0  0  0  0  0  0  0  0  0  0  0  0
    4.2365   -0.9525    0.0000 O   0  0  0  0  0  0  0  0  0  0  0  0
    4.2365    0.6976    0.0000 N   0  0  0  0  0  0  0  0  0  0  0  0
    5.6655   -1.7775    0.0000 N   0  0  0  0  0  0  0  0  0  0  0  0
    7.0944    3.9976    0.0000 N   0  0  0  0  0  0  0  0  0  0  0  0
    6.2694   -3.8104    0.0000 N   0  0  0  0  0  0  0  0  0  0  0  0
    2.0930   -2.1900    0.0000 N   0  0  0  0  0  0  0  0  0  0  0  0
    5.6655    0.6976    0.0000 C   0  0  0  0  0  0  0  0  0  0  0  0
    6.3799   -0.5400    0.0000 C   0  0  0  0  0  0  0  0  0  0  0  0
    4.9509    0.2850    0.0000 C   0  0  0  0  0  0  0  0  0  0  0  0
    6.3799    0.2850    0.0000 C   0  0  0  0  0  0  0  0  0  0  0  0
    5.6655   -0.9525    0.0000 C   0  0  0  0  0  0  0  0  0  0  0  0
    4.9509   -0.5400    0.0000 C   0  0  0  0  0  0  0  0  0  0  0  0
    6.3799    1.9351    0.0000 C   0  0  0  0  0  0  0  0  0  0  0  0
    7.5070   -1.6669    0.0000 C   0  0  0  0  0  0  0  0  0  0  0  0
    6.3799    2.7601    0.0000 C   0  0  0  0  0  0  0  0  0  0  0  0
    7.0944    3.1726    0.0000 C   0  0  0  0  0  0  0  0  0  0  0  0
    8.3319   -1.6669    0.0000 C   0  0  0  0  0  0  0  0  0  0  0  0
    7.8089    2.7601    0.0000 C   0  0  0  0  0  0  0  0  0  0  0  0
    8.7444   -2.3814    0.0000 C   0  0  0  0  0  0  0  0  0  0  0  0
    7.8089    1.9351    0.0000 C   0  0  0  0  0  0  0  0  0  0  0  0
    8.3320   -3.0959    0.0000 C   0  0  0  0  0  0  0  0  0  0  0  0
    7.5070   -3.0959    0.0000 C   0  0  0  0  0  0  0  0  0  0  0  0
    3.5220    0.2850    0.0000 C   0  0  0  0  0  0  0  0  0  0  0  0
    8.5234    1.5226    0.0000 C   0  0  0  0  0  0  0  0  0  0  0  0
    7.0945   -3.8104    0.0000 C   0  0  0  0  0  0  0  0  0  0  0  0
    3.5220   -0.5400    0.0000 C   0  0  0  0  0  0  0  0  0  0  0  0
    2.8075   -0.9525    0.0000 C   0  0  0  0  0  0  0  0  0  0  0  0
    2.8075   -1.7775    0.0000 C   0  0  0  0  0  0  0  0  0  0  0  0
 19  1  1  6
 25  1  1  6
 20  2  1  6
 26  2  1  6
 22  3  1  1
  4 25  1  0
  4 32  1  0
  5 26  1  0
  5 34  1  0
 27  6  1  6
 29  7  1  6
 30  8  1  6
 31  9  1  1
 33 10  1  6
 11 35  2  0
 12 36  1  0
 38 13  1  1
 21 14  1  1
 14 35  1  0
 23 15  1  1
 28 16  1  1
 17 37  1  0
 18 40  1  0
 19 21  1  0
 19 22  1  0
 20 22  1  0
 20 23  1  0
 21 24  1  0
 23 24  1  0
 25 27  1  0
 26 29  1  0
 27 28  1  0
 28 30  1  0
 29 31  1  0
 30 32  1  0
 31 33  1  0
 32 36  1  1
 33 34  1  0
 34 37  1  1
 35 38  1  0
 38 39  1  0
 39 40  1  0
M  END
$$$$
