773
     RDKit          2D

 42 48  0  0  1  0  0  0  0  0999 V2000
    3.5220   -0.2348    0.0000 O   0  0  0  0  0  0  0  0  0  0  0  0
    5.9393    0.6519    0.0000 O   0  0  0  0  0  0  0  0  0  0  0  0
    4.2365    1.0027    0.0000 O   0  0  0  0  0  0  0  0  0  0  0  0
    3.5087    3.0995    0.0000 O   0  0  0  0  0  0  0  0  0  0  0  0
    7.0808   -0.2671    0.0000 O   0  0  0  0  0  0  0  0  0  0  0  0
    2.0930    0.5902    0.0000 O   0  0  0  0  0  0  0  0  0  0  0  0
    4.9938    3.1052    0.0000 O   0  0  0  0  0  0  0  0  0  0  0  0
    2.0930    2.2403    0.0000 O   0  0  0  0  0  0  0  0  0  0  0  0
    2.8457   -3.3231    0.0000 O   0  0  0  0  0  0  0  0  0  0  0  0
    4.0435   -4.0147    0.0000 O   0  0  0  0  0  0  0  0  0  0  0  0
    7.0944   -3.9474    0.0000 O   0  0  0  0  0  0  0  0  0  0  0  0
    8.5234   -1.4723    0.0000 O   0  0  0  0  0  0  0  0  0  0  0  0
    8.5234   -3.1224    0.0000 O   0  0  0  0  0  0  0  0  0  0  0  0
    4.9509   -0.2348    0.0000 C   0  0  0  0  0  0  0  0  0  0  0  0
    5.6655   -0.6473    0.0000 C   0  0  0  0  0  0  0  0  0  0  0  0
    4.2365   -0.6473    0.0000 C   0  0  0  0  0  0  0  0  0  0  0  0
    5.6655   -1.4723    0.0000 C   0  0  0  0  0  0  0  0  0  0  0  0
    4.2365   -1.4723    0.0000 C   0  0  0  0  0  0  0  0  0  0  0  0
    4.9509   -1.8848    0.0000 C   0  0  0  0  0  0  0  0  0  0  0  0
    5.1235    0.5670    0.0000 C   0  0  0  0  0  0  0  0  0  0  0  0
    6.2735   -0.0969    0.0000 C   0  0  0  0  0  0  0  0  0  0  0  0
    3.5220    0.5902    0.0000 C   0  0  0  0  0  0  0  0  0  0  0  0
    6.3799   -1.8848    0.0000 C   0  0  0  0  0  0  0  0  0  0  0  0
    2.8075    1.0027    0.0000 C   0  0  0  0  0  0  0  0  0  0  0  0
    3.5220    2.2403    0.0000 C   0  0  0  0  0  0  0  0  0  0  0  0
    2.8075    1.8277    0.0000 C   0  0  0  0  0  0  0  0  0  0  0  0
    4.2365    1.8277    0.0000 C   0  0  0  0  0  0  0  0  0  0  0  0
    3.4857   -1.8905    0.0000 C   0  0  0  0  0  0  0  0  0  0  0  0
    4.9642   -2.7441    0.0000 C   0  0  0  0  0  0  0  0  0  0  0  0
    4.9872    2.2459    0.0000 C   0  0  0  0  0  0  0  0  0  0  0  0
    3.4791   -2.7499    0.0000 C   0  0  0  0  0  0  0  0  0  0  0  0
    4.2234   -3.1795    0.0000 C   0  0  0  0  0  0  0  0  0  0  0  0
    7.0944   -1.4723    0.0000 C   0  0  0  0  0  0  0  0  0  0  0  0
    6.3799   -2.7099    0.0000 C   0  0  0  0  0  0  0  0  0  0  0  0
    4.2497    3.5349    0.0000 C   0  0  0  0  0  0  0  0  0  0  0  0
    7.0944   -3.1224    0.0000 C   0  0  0  0  0  0  0  0  0  0  0  0
    7.8089   -1.8848    0.0000 C   0  0  0  0  0  0  0  0  0  0  0  0
    3.1939   -4.1032    0.0000 C   0  0  0  0  0  0  0  0  0  0  0  0
    7.8089   -2.7099    0.0000 C   0  0  0  0  0  0  0  0  0  0  0  0
    4.2465    4.3599    0.0000 C   0  0  0  0  0  0  0  0  0  0  0  0
    6.3799   -4.3599    0.0000 C   0  0  0  0  0  0  0  0  0  0  0  0
    9.2379   -1.8848    0.0000 C   0  0  0  0  0  0  0  0  0  0  0  0
 16  1  1  1
 22  1  1  1
  2 20  1  0
  2 21  1  0
  3 22  1  0
  3 27  1  0
 25  4  1  6
  4 35  1  0
  5 21  2  0
 24  6  1  6
  7 30  1  0
  7 35  1  0
 26  8  1  1
  9 31  1  0
  9 38  1  0
 10 32  1  0
 10 38  1  0
 11 36  1  0
 11 41  1  0
 12 37  1  0
 12 42  1  0
 13 39  1  0
 14 15  1  0
 14 16  1  0
 14 20  1  1
 15 17  1  0
 15 21  1  6
 16 18  1  0
 17 19  1  0
 17 23  1  6
 18 19  2  0
 18 28  1  0
 19 29  1  0
 22 24  1  0
 23 33  2  0
 23 34  1  0
 24 26  1  0
 25 26  1  0
 25 27  1  0
 27 30  1  1
 28 31  2  0
 29 32  2  0
 31 32  1  0
 33 37  1  0
 34 36  2  0
 35 40  1  6
 36 39  1  0
 37 39  2  0
M  END
$$$$
