384
     RDKit          2D

 19 21  0  0  0  0  0  0  0  0999 V2000
    4.5079   -0.4720    0.0000 N   0  0  0  0  0  0  0  0  0  0  0  0
    4.5079    1.1780    0.0000 N   0  0  0  0  0  0  0  0  0  0  0  0
    5.9599    1.2066    0.0000 N   0  0  0  0  0  0  0  0  0  0  0  0
    6.7073   -0.0766    0.0000 N   0  0  0  0  0  0  0  0  0  0  0  0
    3.0790    1.1780    0.0000 N   0  0  0  0  0  0  0  0  0  0  0  0
    5.9503   -1.3255    0.0000 N   0  0  0  0  0  0  0  0  0  0  0  0
    7.4202    1.1980    0.0000 N   0  0  0  0  0  0  0  0  0  0  0  0
    3.7934   -0.0595    0.0000 C   0  0  0  0  0  0  0  0  0  0  0  0
    5.2223   -0.0595    0.0000 C   0  0  0  0  0  0  0  0  0  0  0  0
    3.0790   -0.4720    0.0000 C   0  0  0  0  0  0  0  0  0  0  0  0
    5.2223    0.7655    0.0000 C   0  0  0  0  0  0  0  0  0  0  0  0
    3.7934    0.7655    0.0000 C   0  0  0  0  0  0  0  0  0  0  0  0
    5.9599   -0.5005    0.0000 C   0  0  0  0  0  0  0  0  0  0  0  0
    3.0790   -1.2970    0.0000 C   0  0  0  0  0  0  0  0  0  0  0  0
    2.3644   -0.0595    0.0000 C   0  0  0  0  0  0  0  0  0  0  0  0
    6.7073    0.7827    0.0000 C   0  0  0  0  0  0  0  0  0  0  0  0
    2.3644   -1.7095    0.0000 C   0  0  0  0  0  0  0  0  0  0  0  0
    1.6500   -0.4720    0.0000 C   0  0  0  0  0  0  0  0  0  0  0  0
    1.6500   -1.2970    0.0000 C   0  0  0  0  0  0  0  0  0  0  0  0
  1  8  2  0
  1  9  1  0
  2 11  1  0
  2 12  2  0
  3 11  1  0
  3 16  2  0
  4 13  2  0
  4 16  1  0
  5 12  1  0
  6 13  1  0
  7 16  1  0
  8 10  1  0
  8 12  1  0
  9 11  2  0
  9 13  1  0
 10 14  2  0
 10 15  1  0
 14 17  1  0
 15 18  2  0
 17 19  2  0
 18 19  1  0
M  END
$$$$
