
     RDKit          2D

 10  9  0  0  0  0  0  0  0  0999 V2000
    0.4125    0.5716    0.0000 C   0  0  0  0  0  0  0  0  0  0  0  0
    0.0000    1.2860    0.0000 N   0  0  0  0  0  0  0  0  0  0  0  0
   -0.4125    2.0005    0.0000 C   0  0  0  0  0  0  0  0  0  0  0  0
   -0.7145    0.8735    0.0000 C   0  0  0  0  0  0  0  0  0  0  0  0
    0.7145    1.6985    0.0000 C   0  0  0  0  0  0  0  0  0  0  0  0
    0.0000   -0.1429    0.0000 C   0  0  0  0  0  0  0  0  0  0  0  0
    0.4125   -0.8574    0.0000 O   0  0  0  0  0  0  0  0  0  0  0  0
    0.0000   -1.5718    0.0000 C   0  0  0  0  0  0  0  0  0  0  0  0
    0.4125   -2.2863    0.0000 N   0  0  0  0  0  0  0  0  0  0  0  0
   -0.8250   -1.5718    0.0000 O   0  0  0  0  0  0  0  0  0  0  0  0
  1  2  1  0
  2  3  1  0
  2  4  1  0
  2  5  1  0
  1  6  1  0
  6  7  1  0
  7  8  1  0
  8  9  1  0
  8 10  2  0
M  CHG  1   2   1
M  END
$$$$
