
     RDKit          2D

 28 29  0  0  1  0  0  0  0  0999 V2000
    6.9269  -17.7973    0.0000 C   0  0  0  0  0  0  0  0  0  0  0  0
    6.9269  -18.6223    0.0000 N   0  0  0  0  0  0  0  0  0  0  0  0
    6.2124  -17.3848    0.0000 C   0  0  0  0  0  0  0  0  0  0  0  0
    6.2124  -19.0348    0.0000 C   0  0  0  0  0  0  0  0  0  0  0  0
    5.4979  -17.7973    0.0000 N   0  0  0  0  0  0  0  0  0  0  0  0
    5.4979  -18.6223    0.0000 C   0  0  0  0  0  0  0  0  0  0  0  0
    7.6414  -17.3848    0.0000 C   0  0  0  0  0  0  0  0  0  0  0  0
    8.3558  -17.7973    0.0000 N   0  0  0  0  0  0  0  0  0  0  0  0
    7.6414  -16.5598    0.0000 O   0  0  0  0  0  0  0  0  0  0  0  0
    9.0703  -17.3848    0.0000 C   0  0  0  0  0  0  0  0  0  0  0  0
    9.7848  -17.7973    0.0000 C   0  0  0  0  0  0  0  0  0  0  0  0
    9.0703  -16.5598    0.0000 C   0  0  0  0  0  0  0  0  0  0  0  0
    9.7848  -16.1473    0.0000 C   0  0  0  0  0  0  0  0  0  0  0  0
    9.7848  -15.3222    0.0000 C   0  0  0  0  0  0  0  0  0  0  0  0
   10.4993  -16.5598    0.0000 C   0  0  0  0  0  0  0  0  0  0  0  0
   10.4994  -14.9097    0.0000 C   0  0  0  0  0  0  0  0  0  0  0  0
   11.2138  -16.1473    0.0000 C   0  0  0  0  0  0  0  0  0  0  0  0
   11.2138  -15.3222    0.0000 C   0  0  0  0  0  0  0  0  0  0  0  0
    9.7848  -18.6223    0.0000 O   0  0  0  0  0  0  0  0  0  0  0  0
   10.4993  -17.3848    0.0000 N   0  0  0  0  0  0  0  0  0  0  0  0
   11.2138  -17.7973    0.0000 C   0  0  0  0  0  0  0  0  0  0  0  0
   11.9282  -17.3848    0.0000 C   0  0  0  0  0  0  0  0  0  0  0  0
   12.6427  -17.7973    0.0000 C   0  0  0  0  0  0  0  0  0  0  0  0
   13.3572  -17.3848    0.0000 C   0  0  0  0  0  0  0  0  0  0  0  0
   12.6427  -18.6223    0.0000 C   0  0  0  0  0  0  0  0  0  0  0  0
   11.2138  -18.6223    0.0000 B   0  0  0  0  0  0  0  0  0  0  0  0
   10.4993  -19.0348    0.0000 O   0  0  0  0  0  0  0  0  0  0  0  0
   11.9282  -19.0348    0.0000 O   0  0  0  0  0  0  0  0  0  0  0  0
  2  1  2  0
  3  1  1  0
  4  2  1  0
  5  3  2  0
  6  4  2  0
  6  5  1  0
  1  7  1  0
  7  8  1  0
  7  9  2  0
 10  8  1  0
 10 11  1  0
 10 12  1  1
 14 13  2  0
 15 13  1  0
 16 14  1  0
 17 15  2  0
 18 16  2  0
 18 17  1  0
 12 13  1  0
 11 19  2  0
 11 20  1  0
 20 21  1  0
 21 22  1  1
 22 23  1  0
 23 24  1  0
 23 25  1  0
 21 26  1  0
 26 27  1  0
 26 28  1  0
M  END
$$$$
