739
     RDKit          2D

 27 30  0  0  1  0  0  0  0  0999 V2000
    7.4805    0.5950    0.0000 S   0  0  0  0  0  0  0  0  0  0  0  0
    5.2819   -1.0729    0.0000 O   0  0  0  0  0  0  0  0  0  0  0  0
    4.0907    0.0663    0.0000 O   0  0  0  0  0  0  0  0  0  0  0  0
    7.1834   -2.1376    0.0000 O   0  0  0  0  0  0  0  0  0  0  0  0
    8.5424   -1.6960    0.0000 O   0  0  0  0  0  0  0  0  0  0  0  0
    6.6959   -0.4849    0.0000 N   0  0  0  0  0  0  0  0  0  0  0  0
    5.2819    0.9280    0.0000 N   0  0  0  0  0  0  0  0  0  0  0  0
    4.6784    2.1187    0.0000 N   0  0  0  0  0  0  0  0  0  0  0  0
    6.6959    0.3401    0.0000 C   0  0  0  0  0  0  0  0  0  0  0  0
    5.8640    0.3435    0.0000 C   0  0  0  0  0  0  0  0  0  0  0  0
    7.4805   -0.7399    0.0000 C   0  0  0  0  0  0  0  0  0  0  0  0
    7.9654   -0.0724    0.0000 C   0  0  0  0  0  0  0  0  0  0  0  0
    5.8640   -0.4883    0.0000 C   0  0  0  0  0  0  0  0  0  0  0  0
    5.4126    1.7427    0.0000 C   0  0  0  0  0  0  0  0  0  0  0  0
    4.4668    0.8007    0.0000 C   0  0  0  0  0  0  0  0  0  0  0  0
    4.0938    1.5365    0.0000 C   0  0  0  0  0  0  0  0  0  0  0  0
    8.6329   -0.5574    0.0000 C   0  0  0  0  0  0  0  0  0  0  0  0
    8.6329    0.4125    0.0000 C   0  0  0  0  0  0  0  0  0  0  0  0
    7.7355   -1.5245    0.0000 C   0  0  0  0  0  0  0  0  0  0  0  0
    6.2272    1.6119    0.0000 C   0  0  0  0  0  0  0  0  0  0  0  0
    5.7886    2.4769    0.0000 C   0  0  0  0  0  0  0  0  0  0  0  0
    3.2791    1.6673    0.0000 C   0  0  0  0  0  0  0  0  0  0  0  0
    2.7586    1.0272    0.0000 C   0  0  0  0  0  0  0  0  0  0  0  0
    2.9851    2.4381    0.0000 C   0  0  0  0  0  0  0  0  0  0  0  0
    1.9440    1.1579    0.0000 C   0  0  0  0  0  0  0  0  0  0  0  0
    2.1705    2.5688    0.0000 C   0  0  0  0  0  0  0  0  0  0  0  0
    1.6500    1.9287    0.0000 C   0  0  0  0  0  0  0  0  0  0  0  0
  9  1  1  1
  1 12  1  0
  2 13  2  0
  3 15  2  0
  4 19  1  0
  5 19  2  0
  6  9  1  0
  6 11  1  0
  6 13  1  0
 10  7  1  1
  7 14  1  0
  7 15  1  0
  8 14  1  0
  8 16  1  0
  9 10  1  0
 10 13  1  0
 11 12  1  0
 11 19  1  6
 12 17  1  0
 12 18  1  0
 14 20  1  0
 14 21  1  0
 15 16  1  0
 16 22  1  1
 22 23  2  0
 22 24  1  0
 23 25  1  0
 24 26  2  0
 25 27  2  0
 26 27  1  0
M  END
$$$$
