176
     RDKit          2D

 22 22  0  0  0  0  0  0  0  0999 V2000
    3.4115    3.0938    0.0000 F   0  0  0  0  0  0  0  0  0  0  0  0
    5.0615    3.0938    0.0000 F   0  0  0  0  0  0  0  0  0  0  0  0
    4.2365    3.9188    0.0000 F   0  0  0  0  0  0  0  0  0  0  0  0
    6.3799   -3.0938    0.0000 O   0  0  0  0  0  0  0  0  0  0  0  0
    3.5220   -1.4438    0.0000 O   0  0  0  0  0  0  0  0  0  0  0  0
    3.5220   -0.6188    0.0000 N   0  0  0  0  0  0  0  0  0  0  0  0
    2.0930   -3.0938    0.0000 N   0  0  0  0  0  0  0  0  0  0  0  0
    4.9509   -1.4438    0.0000 C   0  0  0  0  0  0  0  0  0  0  0  0
    4.9509   -0.6188    0.0000 C   0  0  0  0  0  0  0  0  0  0  0  0
    5.6655   -1.8563    0.0000 C   0  0  0  0  0  0  0  0  0  0  0  0
    4.2365   -0.2063    0.0000 C   0  0  0  0  0  0  0  0  0  0  0  0
    4.2365    0.6188    0.0000 C   0  0  0  0  0  0  0  0  0  0  0  0
    5.6655   -2.6813    0.0000 C   0  0  0  0  0  0  0  0  0  0  0  0
    3.5220    1.0313    0.0000 C   0  0  0  0  0  0  0  0  0  0  0  0
    4.9509    1.0313    0.0000 C   0  0  0  0  0  0  0  0  0  0  0  0
    4.2365    2.2688    0.0000 C   0  0  0  0  0  0  0  0  0  0  0  0
    3.5220    1.8563    0.0000 C   0  0  0  0  0  0  0  0  0  0  0  0
    4.9509    1.8563    0.0000 C   0  0  0  0  0  0  0  0  0  0  0  0
    4.2365    3.0938    0.0000 C   0  0  0  0  0  0  0  0  0  0  0  0
    2.8075   -1.8563    0.0000 C   0  0  0  0  0  0  0  0  0  0  0  0
    6.3799   -3.9188    0.0000 C   0  0  0  0  0  0  0  0  0  0  0  0
    2.8075   -2.6813    0.0000 C   0  0  0  0  0  0  0  0  0  0  0  0
  1 19  1  0
  2 19  1  0
  3 19  1  0
  4 13  1  0
  4 21  1  0
  5  6  1  0
  5 20  1  0
  6 11  2  3
  7 22  1  0
  8  9  1  0
  8 10  1  0
  9 11  1  0
 10 13  1  0
 11 12  1  0
 12 14  2  0
 12 15  1  0
 14 17  1  0
 15 18  2  0
 16 17  2  0
 16 18  1  0
 16 19  1  0
 20 22  1  0
M  END
$$$$
