677
     RDKit          2D

 11 10  0  0  0  0  0  0  0  0999 V2000
    3.7935    0.0000    0.0000 P   0  0  0  0  0  0  0  0  0  0  0  0
    3.3810    0.7145    0.0000 F   0  0  0  0  0  0  0  0  0  0  0  0
    4.5080    0.4125    0.0000 O   0  0  0  0  0  0  0  0  0  0  0  0
    3.0791   -0.4125    0.0000 O   0  0  0  0  0  0  0  0  0  0  0  0
    4.2060   -0.7145    0.0000 O   0  0  0  0  0  0  0  0  0  0  0  0
    5.2224    0.0000    0.0000 C   0  0  0  0  0  0  0  0  0  0  0  0
    2.3645    0.0000    0.0000 C   0  0  0  0  0  0  0  0  0  0  0  0
    5.9370    0.4125    0.0000 C   0  0  0  0  0  0  0  0  0  0  0  0
    5.2224   -0.8250    0.0000 C   0  0  0  0  0  0  0  0  0  0  0  0
    1.6500   -0.4125    0.0000 C   0  0  0  0  0  0  0  0  0  0  0  0
    2.3645    0.8250    0.0000 C   0  0  0  0  0  0  0  0  0  0  0  0
  1  2  1  0
  1  3  1  0
  1  4  1  0
  1  5  2  0
  3  6  1  0
  4  7  1  0
  6  8  1  0
  6  9  1  0
  7 10  1  0
  7 11  1  0
M  END
$$$$
