972
     RDKit          2D

 27 30  0  0  1  0  0  0  0  0999 V2000
    2.0447   -3.0338    0.0000 Cl  0  0  0  0  0  0  0  0  0  0  0  0
    4.9026    1.9162    0.0000 O   0  0  0  0  0  0  0  0  0  0  0  0
    2.1147    2.3521    0.0000 N   0  0  0  0  0  0  0  0  0  0  0  0
    4.1881    0.6787    0.0000 N   0  0  0  0  0  0  0  0  0  0  0  0
    4.1881   -0.1463    0.0000 N   0  0  0  0  0  0  0  0  0  0  0  0
    3.4737    1.0912    0.0000 C   0  0  0  0  0  0  0  0  0  0  0  0
    2.7920    0.6265    0.0000 C   0  0  0  0  0  0  0  0  0  0  0  0
    3.5353    1.9139    0.0000 C   0  0  0  0  0  0  0  0  0  0  0  0
    2.0037    0.8696    0.0000 C   0  0  0  0  0  0  0  0  0  0  0  0
    2.9306    2.4751    0.0000 C   0  0  0  0  0  0  0  0  0  0  0  0
    1.7022    1.6376    0.0000 C   0  0  0  0  0  0  0  0  0  0  0  0
    4.9026    1.0912    0.0000 C   0  0  0  0  0  0  0  0  0  0  0  0
    1.6500    3.0338    0.0000 C   0  0  0  0  0  0  0  0  0  0  0  0
    5.6170    0.6787    0.0000 C   0  0  0  0  0  0  0  0  0  0  0  0
    4.9026   -0.5588    0.0000 C   0  0  0  0  0  0  0  0  0  0  0  0
    5.6170   -0.1463    0.0000 C   0  0  0  0  0  0  0  0  0  0  0  0
    4.9026   -1.3838    0.0000 C   0  0  0  0  0  0  0  0  0  0  0  0
    6.3546    1.1199    0.0000 C   0  0  0  0  0  0  0  0  0  0  0  0
    6.3546   -0.5873    0.0000 C   0  0  0  0  0  0  0  0  0  0  0  0
    4.1881   -1.7963    0.0000 C   0  0  0  0  0  0  0  0  0  0  0  0
    7.1021    0.6959    0.0000 C   0  0  0  0  0  0  0  0  0  0  0  0
    7.1021   -0.1634    0.0000 C   0  0  0  0  0  0  0  0  0  0  0  0
    4.1881   -2.6213    0.0000 C   0  0  0  0  0  0  0  0  0  0  0  0
    3.4737   -1.3838    0.0000 C   0  0  0  0  0  0  0  0  0  0  0  0
    3.4737   -3.0338    0.0000 C   0  0  0  0  0  0  0  0  0  0  0  0
    2.7591   -1.7963    0.0000 C   0  0  0  0  0  0  0  0  0  0  0  0
    2.7591   -2.6213    0.0000 C   0  0  0  0  0  0  0  0  0  0  0  0
  1 27  1  0
  2 12  2  0
  3 10  1  0
  3 11  1  0
  3 13  1  0
  4  5  1  0
  4  6  1  0
  4 12  1  0
  5 15  2  0
  6  7  1  0
  6  8  1  0
  7  9  1  0
  8 10  1  0
  9 11  1  0
 12 14  1  0
 14 16  2  0
 14 18  1  0
 15 16  1  0
 15 17  1  0
 16 19  1  0
 17 20  1  0
 18 21  2  0
 19 22  2  0
 20 23  2  0
 20 24  1  0
 21 22  1  0
 23 25  1  0
 24 26  2  0
 25 27  2  0
 26 27  1  0
M  END
$$$$
