458
     RDKit          2D

 21 23  0  0  0  0  0  0  0  0999 V2000
    3.8680    0.7167    0.0000 N   0  0  0  0  0  0  0  0  0  0  0  0
    2.4959   -1.6597    0.0000 N   0  0  0  0  0  0  0  0  0  0  0  0
    3.8680   -0.0755    0.0000 C   0  0  0  0  0  0  0  0  0  0  0  0
    4.5817    1.0603    0.0000 C   0  0  0  0  0  0  0  0  0  0  0  0
    3.1542    1.0603    0.0000 C   0  0  0  0  0  0  0  0  0  0  0  0
    4.2641    2.4519    0.0000 C   0  0  0  0  0  0  0  0  0  0  0  0
    3.4719    2.4519    0.0000 C   0  0  0  0  0  0  0  0  0  0  0  0
    4.7580    1.8326    0.0000 C   0  0  0  0  0  0  0  0  0  0  0  0
    2.9780    1.8326    0.0000 C   0  0  0  0  0  0  0  0  0  0  0  0
    3.1820   -0.4715    0.0000 C   0  0  0  0  0  0  0  0  0  0  0  0
    3.1819   -1.2637    0.0000 C   0  0  0  0  0  0  0  0  0  0  0  0
    5.1777    0.4899    0.0000 C   0  0  0  0  0  0  0  0  0  0  0  0
    2.5581    0.4899    0.0000 C   0  0  0  0  0  0  0  0  0  0  0  0
    5.5425    2.0879    0.0000 C   0  0  0  0  0  0  0  0  0  0  0  0
    2.1934    2.0879    0.0000 C   0  0  0  0  0  0  0  0  0  0  0  0
    5.9680    0.7269    0.0000 C   0  0  0  0  0  0  0  0  0  0  0  0
    1.7678    0.7269    0.0000 C   0  0  0  0  0  0  0  0  0  0  0  0
    6.1516    1.5314    0.0000 C   0  0  0  0  0  0  0  0  0  0  0  0
    1.5843    1.5315    0.0000 C   0  0  0  0  0  0  0  0  0  0  0  0
    2.4959   -2.4519    0.0000 C   0  0  0  0  0  0  0  0  0  0  0  0
    1.8099   -1.2637    0.0000 C   0  0  0  0  0  0  0  0  0  0  0  0
  1  3  1  0
  1  4  1  0
  1  5  1  0
  2 11  1  0
  2 20  1  0
  2 21  1  0
  3 10  1  0
  4  8  2  0
  4 12  1  0
  5  9  2  0
  5 13  1  0
  6  7  1  0
  6  8  1  0
  7  9  1  0
  8 14  1  0
  9 15  1  0
 10 11  1  0
 12 16  2  0
 13 17  2  0
 14 18  2  0
 15 19  2  0
 16 18  1  0
 17 19  1  0
M  END
$$$$
