
     RDKit          2D

 24 25  0  0  1  0  0  0  0  0999 V2000
    1.3047    0.3228    0.0000 C   0  0  0  0  0  0  0  0  0  0  0  0
    1.3047   -0.5022    0.0000 C   0  0  0  0  0  0  0  0  0  0  0  0
    0.5902   -0.9147    0.0000 C   0  0  0  0  0  0  0  0  0  0  0  0
   -0.1243   -0.5022    0.0000 C   0  0  0  0  0  0  0  0  0  0  0  0
   -0.1243    0.3228    0.0000 C   0  0  0  0  0  0  0  0  0  0  0  0
    0.5902    0.7353    0.0000 C   0  0  0  0  0  0  0  0  0  0  0  0
    3.4481    0.7353    0.0000 C   0  0  0  0  0  0  0  0  0  0  0  0
    3.4481    1.5603    0.0000 O   0  0  0  0  0  0  0  0  0  0  0  0
    2.7336    0.3228    0.0000 C   0  0  0  0  0  0  0  0  0  0  0  0
    2.0192    0.7353    0.0000 C   0  0  0  0  0  0  0  0  0  0  0  0
    2.7336   -0.5022    0.0000 N   0  0  0  0  0  0  0  0  0  0  0  0
    4.1626    0.3228    0.0000 O   0  0  0  0  0  0  0  0  0  0  0  0
    0.5902   -1.7397    0.0000 I   0  0  0  0  0  0  0  0  0  0  0  0
   -0.8387   -0.9147    0.0000 O   0  0  0  0  0  0  0  0  0  0  0  0
   -3.6966    0.7353    0.0000 O   0  0  0  0  0  0  0  0  0  0  0  0
   -3.6966   -0.9147    0.0000 I   0  0  0  0  0  0  0  0  0  0  0  0
   -1.5532   -0.5022    0.0000 C   0  0  0  0  0  0  0  0  0  0  0  0
   -2.9821   -0.5022    0.0000 C   0  0  0  0  0  0  0  0  0  0  0  0
   -2.2677   -0.9147    0.0000 C   0  0  0  0  0  0  0  0  0  0  0  0
   -1.5532    0.3228    0.0000 C   0  0  0  0  0  0  0  0  0  0  0  0
   -2.9821    0.3228    0.0000 C   0  0  0  0  0  0  0  0  0  0  0  0
   -0.8387    0.7353    0.0000 I   0  0  0  0  0  0  0  0  0  0  0  0
   -2.2677    0.7353    0.0000 C   0  0  0  0  0  0  0  0  0  0  0  0
   -2.2677    1.5603    0.0000 I   0  0  0  0  0  0  0  0  0  0  0  0
  9  7  1  0
  8  7  2  0
 12  7  1  0
 10  9  1  0
  9 11  1  6
  1 10  1  0
  4 14  1  0
  2  1  2  0
  6  1  1  0
  5  4  1  0
  3  4  2  0
  3  2  1  0
  5  6  2  0
 13  3  1  0
 14 17  1  0
 21 15  1  0
 18 16  1  0
 19 17  1  0
 18 19  2  0
 17 20  2  0
 20 23  1  0
 23 21  2  0
 18 21  1  0
  5 22  1  0
 23 24  1  0
M  END
$$$$
