
     RDKit          2D

 28 28  0  0  0  0  0  0  0  0999 V2000
    7.6004    2.6789    0.0000 O   0  0  0  0  0  0  0  0  0  0  0  0
    2.4680    2.6610    0.0000 O   0  0  0  0  0  0  0  0  0  0  0  0
    6.7833   -3.1904    0.0000 O   0  0  0  0  0  0  0  0  0  0  0  0
    2.2815    1.2443    0.0000 O   0  0  0  0  0  0  0  0  0  0  0  0
    5.4631   -2.6436    0.0000 O   0  0  0  0  0  0  0  0  0  0  0  0
    2.6934   -2.7702    0.0000 O   0  0  0  0  0  0  0  0  0  0  0  0
    2.3236   -1.3899    0.0000 O   0  0  0  0  0  0  0  0  0  0  0  0
    6.1714    1.0289    0.0000 N   0  0  0  0  0  0  0  0  0  0  0  0
    6.0946   -1.1192    0.0000 N   0  0  0  0  0  0  0  0  0  0  0  0
    3.9174    1.0289    0.0000 N   0  0  0  0  0  0  0  0  0  0  0  0
    3.9174   -0.9629    0.0000 N   0  0  0  0  0  0  0  0  0  0  0  0
    5.4569    1.4414    0.0000 C   0  0  0  0  0  0  0  0  0  0  0  0
    6.1714    0.2039    0.0000 C   0  0  0  0  0  0  0  0  0  0  0  0
    6.5071   -0.4047    0.0000 C   0  0  0  0  0  0  0  0  0  0  0  0
    4.7425    1.0289    0.0000 C   0  0  0  0  0  0  0  0  0  0  0  0
    5.2977   -1.3327    0.0000 C   0  0  0  0  0  0  0  0  0  0  0  0
    3.3341    0.4455    0.0000 C   0  0  0  0  0  0  0  0  0  0  0  0
    4.7143   -0.7494    0.0000 C   0  0  0  0  0  0  0  0  0  0  0  0
    3.3341   -0.3795    0.0000 C   0  0  0  0  0  0  0  0  0  0  0  0
    6.8858    1.4414    0.0000 C   0  0  0  0  0  0  0  0  0  0  0  0
    6.8858    2.2664    0.0000 C   0  0  0  0  0  0  0  0  0  0  0  0
    6.5968   -1.7737    0.0000 C   0  0  0  0  0  0  0  0  0  0  0  0
    3.6017    1.7911    0.0000 C   0  0  0  0  0  0  0  0  0  0  0  0
    3.7038   -1.7598    0.0000 C   0  0  0  0  0  0  0  0  0  0  0  0
    6.1714    2.6789    0.0000 C   0  0  0  0  0  0  0  0  0  0  0  0
    2.7837    1.8988    0.0000 C   0  0  0  0  0  0  0  0  0  0  0  0
    6.2811   -2.5359    0.0000 C   0  0  0  0  0  0  0  0  0  0  0  0
    2.9070   -1.9733    0.0000 C   0  0  0  0  0  0  0  0  0  0  0  0
  1 21  1  0
  2 26  1  0
  3 27  1  0
  4 26  2  0
  5 27  2  0
  6 28  1  0
  7 28  2  0
  8 12  1  0
  8 13  1  0
  8 20  1  0
  9 14  1  0
  9 16  1  0
  9 22  1  0
 10 15  1  0
 10 17  1  0
 10 23  1  0
 11 18  1  0
 11 19  1  0
 11 24  1  0
 12 15  1  0
 13 14  1  0
 16 18  1  0
 17 19  1  0
 20 21  1  0
 21 25  1  0
 22 27  1  0
 23 26  1  0
 24 28  1  0
M  CHG  3   2  -1   3  -1   6  -1
M  END
$$$$
