953
     RDKit          2D

 20 22  0  0  0  0  0  0  0  0999 V2000
    6.5944   -1.5972    0.0000 N   0  0  0  0  0  0  0  0  0  0  0  0
    7.9142    1.4693    0.0000 N   0  0  0  0  0  0  0  0  0  0  0  0
    2.9558   -0.5207    0.0000 N   0  0  0  0  0  0  0  0  0  0  0  0
    2.8695   -1.3411    0.0000 N   0  0  0  0  0  0  0  0  0  0  0  0
    1.6500   -0.7982    0.0000 N   0  0  0  0  0  0  0  0  0  0  0  0
    6.5944   -0.2693    0.0000 C   0  0  0  0  0  0  0  0  0  0  0  0
    5.8137   -0.5207    0.0000 C   0  0  0  0  0  0  0  0  0  0  0  0
    6.8507    0.5149    0.0000 C   0  0  0  0  0  0  0  0  0  0  0  0
    5.8137   -1.3457    0.0000 C   0  0  0  0  0  0  0  0  0  0  0  0
    7.6580    0.6851    0.0000 C   0  0  0  0  0  0  0  0  0  0  0  0
    5.0993   -0.1082    0.0000 C   0  0  0  0  0  0  0  0  0  0  0  0
    7.0759   -0.9332    0.0000 C   0  0  0  0  0  0  0  0  0  0  0  0
    4.3847   -0.5207    0.0000 C   0  0  0  0  0  0  0  0  0  0  0  0
    5.0993   -1.7582    0.0000 C   0  0  0  0  0  0  0  0  0  0  0  0
    4.3847   -1.3457    0.0000 C   0  0  0  0  0  0  0  0  0  0  0  0
    3.6703   -0.1082    0.0000 C   0  0  0  0  0  0  0  0  0  0  0  0
    7.3633    2.0833    0.0000 C   0  0  0  0  0  0  0  0  0  0  0  0
    8.7215    1.6394    0.0000 C   0  0  0  0  0  0  0  0  0  0  0  0
    2.2021   -0.1851    0.0000 C   0  0  0  0  0  0  0  0  0  0  0  0
    2.0625   -1.5128    0.0000 C   0  0  0  0  0  0  0  0  0  0  0  0
  1  9  1  0
  1 12  1  0
  2 10  1  0
  2 17  1  0
  2 18  1  0
  3  4  1  0
  3 16  1  0
  3 19  1  0
  4 20  2  0
  5 19  2  0
  5 20  1  0
  6  7  1  0
  6  8  1  0
  6 12  2  0
  7  9  2  0
  7 11  1  0
  8 10  1  0
  9 14  1  0
 11 13  2  0
 13 15  1  0
 13 16  1  0
 14 15  2  0
M  END
$$$$
