983
     RDKit          2D

 25 26  0  0  1  0  0  0  0  0999 V2000
    5.6655    1.8068    0.0000 O   0  0  0  0  0  0  0  0  0  0  0  0
    6.3799   -4.3808    0.0000 O   0  0  0  0  0  0  0  0  0  0  0  0
    2.0930    3.0443    0.0000 O   0  0  0  0  0  0  0  0  0  0  0  0
    4.9509    3.8693    0.0000 O   0  0  0  0  0  0  0  0  0  0  0  0
    5.6655    0.1568    0.0000 N   0  0  0  0  0  0  0  0  0  0  0  0
    3.5220    3.8693    0.0000 N   0  0  0  0  0  0  0  0  0  0  0  0
    5.6655   -0.6683    0.0000 C   0  0  0  0  0  0  0  0  0  0  0  0
    6.3799   -1.0808    0.0000 C   0  0  0  0  0  0  0  0  0  0  0  0
    4.9509    0.5693    0.0000 C   0  0  0  0  0  0  0  0  0  0  0  0
    4.9509    1.3943    0.0000 C   0  0  0  0  0  0  0  0  0  0  0  0
    4.9509   -1.0808    0.0000 C   0  0  0  0  0  0  0  0  0  0  0  0
    6.3799   -1.9058    0.0000 C   0  0  0  0  0  0  0  0  0  0  0  0
    4.2365    1.8068    0.0000 C   0  0  0  0  0  0  0  0  0  0  0  0
    4.2365    2.6318    0.0000 C   0  0  0  0  0  0  0  0  0  0  0  0
    7.0944   -2.3183    0.0000 C   0  0  0  0  0  0  0  0  0  0  0  0
    5.6655   -2.3183    0.0000 C   0  0  0  0  0  0  0  0  0  0  0  0
    3.5220    1.3943    0.0000 C   0  0  0  0  0  0  0  0  0  0  0  0
    3.5220    3.0443    0.0000 C   0  0  0  0  0  0  0  0  0  0  0  0
    2.8075    1.8068    0.0000 C   0  0  0  0  0  0  0  0  0  0  0  0
    7.0944   -3.1433    0.0000 C   0  0  0  0  0  0  0  0  0  0  0  0
    5.6655   -3.1433    0.0000 C   0  0  0  0  0  0  0  0  0  0  0  0
    2.8075    2.6318    0.0000 C   0  0  0  0  0  0  0  0  0  0  0  0
    6.3799   -3.5558    0.0000 C   0  0  0  0  0  0  0  0  0  0  0  0
    4.2365    4.2818    0.0000 C   0  0  0  0  0  0  0  0  0  0  0  0
    7.0944   -4.7934    0.0000 C   0  0  0  0  0  0  0  0  0  0  0  0
  1 10  1  0
  2 23  1  0
  2 25  1  0
  3 22  1  0
  4 24  2  0
  5  7  1  0
  5  9  1  0
  6 18  1  0
  6 24  1  0
  7  8  1  0
  7 11  1  0
  8 12  1  0
  9 10  1  0
 10 13  1  0
 12 15  2  0
 12 16  1  0
 13 14  2  0
 13 17  1  0
 14 18  1  0
 15 20  1  0
 16 21  2  0
 17 19  2  0
 18 22  2  0
 19 22  1  0
 20 23  2  0
 21 23  1  0
M  END
$$$$
