894
     RDKit          2D

 22 25  0  0  1  0  0  0  0  0999 V2000
    2.3513   -2.2614    0.0000 O   0  0  0  0  0  0  0  0  0  0  0  0
    3.0595   -3.4715    0.0000 O   0  0  0  0  0  0  0  0  0  0  0  0
    2.3219    3.4715    0.0000 O   0  0  0  0  0  0  0  0  0  0  0  0
    3.0499   -0.2485    0.0000 C   0  0  0  0  0  0  0  0  0  0  0  0
    2.3640    0.1476    0.0000 C   0  0  0  0  0  0  0  0  0  0  0  0
    3.0499   -1.0405    0.0000 C   0  0  0  0  0  0  0  0  0  0  0  0
    2.3640   -1.4365    0.0000 C   0  0  0  0  0  0  0  0  0  0  0  0
    2.3513    0.9725    0.0000 C   0  0  0  0  0  0  0  0  0  0  0  0
    1.6781   -0.2485    0.0000 C   0  0  0  0  0  0  0  0  0  0  0  0
    1.6781   -1.0405    0.0000 C   0  0  0  0  0  0  0  0  0  0  0  0
    3.7706    0.1529    0.0000 C   0  0  0  0  0  0  0  0  0  0  0  0
    3.7706   -1.4420    0.0000 C   0  0  0  0  0  0  0  0  0  0  0  0
    3.0626    1.3904    0.0000 C   0  0  0  0  0  0  0  0  0  0  0  0
    3.7771    0.9780    0.0000 C   0  0  0  0  0  0  0  0  0  0  0  0
    1.6781   -1.8326    0.0000 C   0  0  0  0  0  0  0  0  0  0  0  0
    1.6684    0.5712    0.0000 C   0  0  0  0  0  0  0  0  0  0  0  0
    1.5973    1.3848    0.0000 C   0  0  0  0  0  0  0  0  0  0  0  0
    3.7771   -2.2670    0.0000 C   0  0  0  0  0  0  0  0  0  0  0  0
    3.0626   -2.6795    0.0000 C   0  0  0  0  0  0  0  0  0  0  0  0
    3.0692    2.2498    0.0000 C   0  0  0  0  0  0  0  0  0  0  0  0
    1.5841    2.2441    0.0000 C   0  0  0  0  0  0  0  0  0  0  0  0
    2.3249    2.6795    0.0000 C   0  0  0  0  0  0  0  0  0  0  0  0
  1  7  1  0
  1 19  1  0
  2 19  2  0
  3 22  2  0
  4  5  1  0
  4  6  1  0
  4 11  1  1
  5  8  1  0
  5  9  1  6
  6  7  1  0
  6 12  1  6
  7 10  1  0
  7 15  1  6
  8 13  1  0
  8 16  1  6
  8 17  1  0
  9 10  1  0
 11 14  1  0
 12 18  1  0
 13 14  1  0
 13 20  2  0
 17 21  2  0
 18 19  1  0
 20 22  1  0
 21 22  1  0
M  END
$$$$
