
     RDKit          2D

 23 25  0  0  0  0  0  0  0  0999 V2000
   -3.4179    0.7661    0.0000 C   0  0  0  0  0  0  0  0  0  0  0  0
   -4.1323    1.1786    0.0000 C   0  0  0  0  0  0  0  0  0  0  0  0
   -4.8468    0.7661    0.0000 C   0  0  0  0  0  0  0  0  0  0  0  0
   -4.8468   -0.0589    0.0000 C   0  0  0  0  0  0  0  0  0  0  0  0
   -4.1323   -0.4714    0.0000 C   0  0  0  0  0  0  0  0  0  0  0  0
   -3.4179   -0.0589    0.0000 C   0  0  0  0  0  0  0  0  0  0  0  0
   -2.7034   -0.4714    0.0000 S   0  0  0  0  0  0  0  0  0  0  0  0
   -1.9889   -0.0589    0.0000 N   0  0  0  0  0  0  0  0  0  0  0  0
   -1.9889    0.7661    0.0000 C   0  0  0  0  0  0  0  0  0  0  0  0
   -2.7034    1.1786    0.0000 C   0  0  0  0  0  0  0  0  0  0  0  0
   -1.2744    1.1786    0.0000 C   0  0  0  0  0  0  0  0  0  0  0  0
   -1.2744    2.0036    0.0000 N   0  0  0  0  0  0  0  0  0  0  0  0
   -0.5600    2.4161    0.0000 C   0  0  0  0  0  0  0  0  0  0  0  0
    0.1545    3.6536    0.0000 C   0  0  0  0  0  0  0  0  0  0  0  0
   -0.5600    3.2411    0.0000 N   0  0  0  0  0  0  0  0  0  0  0  0
    0.1545    2.0036    0.0000 C   0  0  0  0  0  0  0  0  0  0  0  0
    0.8690    2.4161    0.0000 C   0  0  0  0  0  0  0  0  0  0  0  0
    0.8690    3.2411    0.0000 C   0  0  0  0  0  0  0  0  0  0  0  0
   -1.2744   -0.4714    0.0000 C   0  0  0  0  0  0  0  0  0  0  0  0
   -2.7034    2.0036    0.0000 O   0  0  0  0  0  0  0  0  0  0  0  0
   -0.5599    0.7661    0.0000 O   0  0  0  0  0  0  0  0  0  0  0  0
   -3.2868   -1.0548    0.0000 O   0  0  0  0  0  0  0  0  0  0  0  0
   -2.1200   -1.0548    0.0000 O   0  0  0  0  0  0  0  0  0  0  0  0
  1  2  2  0
  1  6  1  0
  1 10  1  0
  2  3  1  0
  3  4  2  0
  4  5  1  0
  5  6  2  0
  6  7  1  0
  7  8  1  0
  8  9  1  0
  9 10  2  0
  9 11  1  0
 11 12  1  0
 12 13  1  0
 15 13  1  0
 13 16  2  0
 14 15  2  0
 14 18  1  0
 16 17  1  0
 17 18  2  0
  8 19  1  0
 10 20  1  0
 11 21  2  0
  7 22  2  0
  7 23  2  0
M  END
$$$$
