
     RDKit          2D

 59 67  0  0  1  0  0  0  0  0999 V2000
    7.6166   -1.1294    0.0000 C   0  0  0  0  0  0  0  0  0  0  0  0
   -1.2812   -1.8647    0.0000 C   0  0  0  0  0  0  0  0  0  0  0  0
   -1.7353   -2.0967    0.0000 C   0  0  0  0  0  0  0  0  0  0  0  0
    2.8612   -3.0923    0.0000 C   0  0  0  0  0  0  0  0  0  0  0  0
    5.2497   -0.9790    0.0000 C   0  0  0  0  0  0  0  0  0  0  0  0
    1.4200    1.4381    0.0000 C   0  0  0  0  0  0  0  0  0  0  0  0
   -0.3149   -4.4682    0.0000 C   0  0  0  0  0  0  0  0  0  0  0  0
    7.2172   -0.4075    0.0000 C   0  0  0  0  0  0  0  0  0  0  0  0
   -0.5107   -2.1596    0.0000 C   0  0  0  0  0  0  0  0  0  0  0  0
    3.3246    4.3375    0.0000 C   0  0  0  0  0  0  0  0  0  0  0  0
    2.5192    4.1590    0.0000 C   0  0  0  0  0  0  0  0  0  0  0  0
   -0.7705   -0.5302    0.0000 C   0  0  0  0  0  0  0  0  0  0  0  0
    3.8819    3.7291    0.0000 C   0  0  0  0  0  0  0  0  0  0  0  0
    2.2710    3.3722    0.0000 C   0  0  0  0  0  0  0  0  0  0  0  0
    4.8872    2.3393    0.0000 C   0  0  0  0  0  0  0  0  0  0  0  0
   -0.6406   -1.3449    0.0000 C   0  0  0  0  0  0  0  0  0  0  0  0
    2.0595   -0.7730    0.0000 C   0  0  0  0  0  0  0  0  0  0  0  0
   -0.1299   -0.0103    0.0000 C   0  0  0  0  0  0  0  0  0  0  0  0
    5.6009    1.8603    0.0000 C   0  0  0  0  0  0  0  0  0  0  0  0
    1.6095   -0.0816    0.0000 C   0  0  0  0  0  0  0  0  0  0  0  0
    2.4884   -0.2423    0.0000 C   0  0  0  0  0  0  0  0  0  0  0  0
    3.6564   -1.4077    0.0000 C   0  0  0  0  0  0  0  0  0  0  0  0
    5.5849   -0.6411    0.0000 C   0  0  0  0  0  0  0  0  0  0  0  0
    4.0601    0.1191    0.0000 C   0  0  0  0  0  0  0  0  0  0  0  0
    5.3540    0.5265    0.0000 C   0  0  0  0  0  0  0  0  0  0  0  0
    6.5409    0.4393    0.0000 C   0  0  0  0  0  0  0  0  0  0  0  0
   -1.1513   -2.6794    0.0000 C   0  0  0  0  0  0  0  0  0  0  0  0
    4.9041   -0.0924    0.0000 C   0  0  0  0  0  0  0  0  0  0  0  0
    3.6337    2.9423    0.0000 C   0  0  0  0  0  0  0  0  0  0  0  0
    4.0524    2.2315    0.0000 C   0  0  0  0  0  0  0  0  0  0  0  0
    2.2757   -1.0394    0.0000 C   0  0  0  0  0  0  0  0  0  0  0  0
    3.2851   -0.0279    0.0000 C   0  0  0  0  0  0  0  0  0  0  0  0
    2.8283    2.7639    0.0000 C   0  0  0  0  0  0  0  0  0  0  0  0
    2.8597   -1.6221    0.0000 C   0  0  0  0  0  0  0  0  0  0  0  0
    3.8690   -0.6106    0.0000 C   0  0  0  0  0  0  0  0  0  0  0  0
    3.5057    1.6136    0.0000 C   0  0  0  0  0  0  0  0  0  0  0  0
    0.7705   -1.1198    0.0000 C   0  0  0  0  0  0  0  0  0  0  0  0
    1.6709   -2.2294    0.0000 C   0  0  0  0  0  0  0  0  0  0  0  0
    0.2598   -2.4544    0.0000 C   0  0  0  0  0  0  0  0  0  0  0  0
    2.6729    0.7511    0.0000 C   0  0  0  0  0  0  0  0  0  0  0  0
    0.7626   -3.5296    0.0000 C   0  0  0  0  0  0  0  0  0  0  0  0
    6.3924   -0.3925    0.0000 C   0  0  0  0  0  0  0  0  0  0  0  0
    0.1299   -1.6397    0.0000 C   0  0  0  0  0  0  0  0  0  0  0  0
    1.5410   -1.4147    0.0000 C   0  0  0  0  0  0  0  0  0  0  0  0
    3.4977    0.7692    0.0000 C   0  0  0  0  0  0  0  0  0  0  0  0
    1.0304   -2.7493    0.0000 C   0  0  0  0  0  0  0  0  0  0  0  0
    2.7491    1.9427    0.0000 N   0  0  0  0  0  0  0  0  0  0  0  0
    2.4859   -2.3576    0.0000 N   0  0  0  0  0  0  0  0  0  0  0  0
    5.9135    1.0482    0.0000 N   0  0  0  0  0  0  0  0  0  0  0  0
    0.6406   -0.3051    0.0000 N   0  0  0  0  0  0  0  0  0  0  0  0
   -1.7919   -3.1993    0.0000 O   0  0  0  0  0  0  0  0  0  0  0  0
    2.2763    0.0277    0.0000 O   0  0  0  0  0  0  0  0  0  0  0  0
    1.3045   -4.1517    0.0000 O   0  0  0  0  0  0  0  0  0  0  0  0
    6.5076   -1.2094    0.0000 O   0  0  0  0  0  0  0  0  0  0  0  0
    1.5275   -3.4076    0.0000 O   0  0  0  0  0  0  0  0  0  0  0  0
    4.6657   -0.3963    0.0000 O   0  0  0  0  0  0  0  0  0  0  0  0
    2.2448    1.4563    0.0000 O   0  0  0  0  0  0  0  0  0  0  0  0
   -0.0471   -3.6879    0.0000 O   0  0  0  0  0  0  0  0  0  0  0  0
   -0.3808   -2.9743    0.0000 O   0  0  0  0  0  0  0  0  0  0  0  0
  8  1  1  0
  9  2  1  0
 11 10  2  0
 13 10  1  0
 14 11  1  0
 16 12  2  0
 18 12  1  0
 19 15  1  0
 20 17  1  0
 27  3  1  0
 28 23  1  1
 28 24  1  0
 28 25  1  0
 29 13  2  0
 30 15  1  0
 30 29  1  0
 31 21  2  0
 32 21  1  0
 33 14  2  0
 33 29  1  0
 34 22  2  0
 34 31  1  0
 35 22  1  0
 35 32  2  0
 36 30  2  0
 42  8  1  0
 42 23  1  0
 42 26  1  0
 43  9  1  1
 43 16  1  0
 43 37  1  0
 43 39  1  0
 44 17  1  6
 44 31  1  0
 44 37  1  0
 44 38  1  0
 45 24  1  0
 45 32  1  0
 45 36  1  0
 45 40  1  1
 46 38  1  0
 46 39  1  0
 46 41  1  0
 47 33  1  0
 47 36  1  0
 48  4  1  0
 48 34  1  0
 38 48  1  1
 49 19  1  0
 49 25  1  0
 49 26  1  0
 50 18  1  0
 50 20  1  0
 37 50  1  6
 51 27  2  0
 52 40  2  0
 53 41  2  0
 42 54  1  1
 46 55  1  6
 56  5  1  0
 56 35  1  0
 57  6  1  0
 57 40  1  0
 58  7  1  0
 58 41  1  0
 59 27  1  0
 39 59  1  6
M  END
$$$$
