400
     RDKit          2D

 24 26  0  0  1  0  0  0  0  0999 V2000
    5.4278    1.1433    0.0000 Cl  0  0  0  0  0  0  0  0  0  0  0  0
    4.4167   -0.3694    0.0000 O   0  0  0  0  0  0  0  0  0  0  0  0
    5.1782   -0.8542    0.0000 O   0  0  0  0  0  0  0  0  0  0  0  0
    2.3169   -0.0602    0.0000 O   0  0  0  0  0  0  0  0  0  0  0  0
    3.7493   -3.3292    0.0000 O   0  0  0  0  0  0  0  0  0  0  0  0
    2.0707    1.1433    0.0000 O   0  0  0  0  0  0  0  0  0  0  0  0
    4.5942    2.6132    0.0000 O   0  0  0  0  0  0  0  0  0  0  0  0
    3.7493   -0.8542    0.0000 C   0  0  0  0  0  0  0  0  0  0  0  0
    3.0348   -1.2667    0.0000 C   0  0  0  0  0  0  0  0  0  0  0  0
    3.0348   -2.0917    0.0000 C   0  0  0  0  0  0  0  0  0  0  0  0
    3.0819   -0.3694    0.0000 C   0  0  0  0  0  0  0  0  0  0  0  0
    4.4637   -1.2667    0.0000 C   0  0  0  0  0  0  0  0  0  0  0  0
    2.2223   -1.4100    0.0000 C   0  0  0  0  0  0  0  0  0  0  0  0
    3.3368    0.4153    0.0000 C   0  0  0  0  0  0  0  0  0  0  0  0
    4.1618    0.4153    0.0000 C   0  0  0  0  0  0  0  0  0  0  0  0
    3.7493   -2.5042    0.0000 C   0  0  0  0  0  0  0  0  0  0  0  0
    4.4637   -2.0917    0.0000 C   0  0  0  0  0  0  0  0  0  0  0  0
    2.8957    1.1528    0.0000 C   0  0  0  0  0  0  0  0  0  0  0  0
    4.6028    1.1528    0.0000 C   0  0  0  0  0  0  0  0  0  0  0  0
    3.3196    1.9003    0.0000 C   0  0  0  0  0  0  0  0  0  0  0  0
    4.1790    1.9003    0.0000 C   0  0  0  0  0  0  0  0  0  0  0  0
    5.8927   -1.2667    0.0000 C   0  0  0  0  0  0  0  0  0  0  0  0
    1.6500    1.8529    0.0000 C   0  0  0  0  0  0  0  0  0  0  0  0
    4.1845    3.3292    0.0000 C   0  0  0  0  0  0  0  0  0  0  0  0
  1 19  1  0
  8  2  1  6
  2 15  1  0
  3 12  1  0
  3 22  1  0
  4 11  2  0
  5 16  2  0
  6 18  1  0
  6 23  1  0
  7 21  1  0
  7 24  1  0
  8  9  1  0
  8 11  1  0
  8 12  1  0
  9 10  1  0
  9 13  1  1
 10 16  1  0
 11 14  1  0
 12 17  2  0
 14 15  2  0
 14 18  1  0
 15 19  1  0
 16 17  1  0
 18 20  2  0
 19 21  2  0
 20 21  1  0
M  END
$$$$
