998
     RDKit          2D

 18 20  0  0  1  0  0  0  0  0999 V2000
    6.6612   -1.7546    0.0000 O   0  0  0  0  0  0  0  0  0  0  0  0
    4.6342    1.2635    0.0000 N   0  0  0  0  0  0  0  0  0  0  0  0
    2.3595   -1.0023    0.0000 N   0  0  0  0  0  0  0  0  0  0  0  0
    7.6843   -0.8406    0.0000 N   0  0  0  0  0  0  0  0  0  0  0  0
    2.8873   -0.4116    0.0000 C   0  0  0  0  0  0  0  0  0  0  0  0
    3.6956   -0.5770    0.0000 C   0  0  0  0  0  0  0  0  0  0  0  0
    2.6323    0.3731    0.0000 C   0  0  0  0  0  0  0  0  0  0  0  0
    4.2382    0.0447    0.0000 C   0  0  0  0  0  0  0  0  0  0  0  0
    3.1892    0.9819    0.0000 C   0  0  0  0  0  0  0  0  0  0  0  0
    3.9934    0.7979    0.0000 C   0  0  0  0  0  0  0  0  0  0  0  0
    5.0303    0.0447    0.0000 C   0  0  0  0  0  0  0  0  0  0  0  0
    5.2750    0.7979    0.0000 C   0  0  0  0  0  0  0  0  0  0  0  0
    5.5729   -0.5770    0.0000 C   0  0  0  0  0  0  0  0  0  0  0  0
    6.0793    0.9819    0.0000 C   0  0  0  0  0  0  0  0  0  0  0  0
    6.3812   -0.4116    0.0000 C   0  0  0  0  0  0  0  0  0  0  0  0
    1.5842   -0.8406    0.0000 C   0  0  0  0  0  0  0  0  0  0  0  0
    6.6361    0.3731    0.0000 C   0  0  0  0  0  0  0  0  0  0  0  0
    6.9089   -1.0023    0.0000 C   0  0  0  0  0  0  0  0  0  0  0  0
  1 18  2  0
  2 10  1  0
  2 12  1  0
  5  3  1  6
  3 16  1  0
  4 18  1  0
  5  6  1  0
  5  7  1  0
  6  8  1  0
  7  9  1  0
  8 10  2  0
  8 11  1  0
  9 10  1  0
 11 12  2  0
 11 13  1  0
 12 14  1  0
 13 15  2  0
 14 17  2  0
 15 17  1  0
 15 18  1  0
M  END
$$$$
