797
     RDKit          2D

 12 13  0  0  0  0  0  0  0  0999 V2000
    3.1651    1.6828    0.0000 N   0  0  0  0  0  0  0  0  0  0  0  0
    3.8324    0.5269    0.0000 N   0  0  0  0  0  0  0  0  0  0  0  0
    3.0789    0.8623    0.0000 C   0  0  0  0  0  0  0  0  0  0  0  0
    3.9719    1.8543    0.0000 C   0  0  0  0  0  0  0  0  0  0  0  0
    2.3643    0.4499    0.0000 C   0  0  0  0  0  0  0  0  0  0  0  0
    4.3844    1.1398    0.0000 C   0  0  0  0  0  0  0  0  0  0  0  0
    2.3643   -0.3751    0.0000 C   0  0  0  0  0  0  0  0  0  0  0  0
    3.0789   -0.7875    0.0000 C   0  0  0  0  0  0  0  0  0  0  0  0
    1.6499   -0.7875    0.0000 C   0  0  0  0  0  0  0  0  0  0  0  0
    3.0789   -1.6126    0.0000 C   0  0  0  0  0  0  0  0  0  0  0  0
    1.6499   -1.6126    0.0000 C   0  0  0  0  0  0  0  0  0  0  0  0
    2.3643   -2.0250    0.0000 C   0  0  0  0  0  0  0  0  0  0  0  0
  1  3  1  0
  1  4  1  0
  2  3  2  0
  2  6  1  0
  3  5  1  0
  4  6  1  0
  5  7  1  0
  7  8  2  0
  7  9  1  0
  8 10  1  0
  9 11  2  0
 10 12  2  0
 11 12  1  0
M  END
$$$$
