904
     RDKit          2D

 22 25  0  0  1  0  0  0  0  0999 V2000
    4.2713   -1.2750    0.0000 O   0  0  0  0  0  0  0  0  0  0  0  0
    3.5862    1.3159    0.0000 N   0  0  0  0  0  0  0  0  0  0  0  0
    6.6362   -0.7883    0.0000 N   0  0  0  0  0  0  0  0  0  0  0  0
    7.9103   -0.9271    0.0000 N   0  0  0  0  0  0  0  0  0  0  0  0
    5.3330   -0.3593    0.0000 C   0  0  0  0  0  0  0  0  0  0  0  0
    5.5880    0.4254    0.0000 C   0  0  0  0  0  0  0  0  0  0  0  0
    5.0312    1.0343    0.0000 C   0  0  0  0  0  0  0  0  0  0  0  0
    4.2270    0.8503    0.0000 C   0  0  0  0  0  0  0  0  0  0  0  0
    3.9822    0.0970    0.0000 C   0  0  0  0  0  0  0  0  0  0  0  0
    4.5248   -0.5246    0.0000 C   0  0  0  0  0  0  0  0  0  0  0  0
    5.8608   -0.9500    0.0000 C   0  0  0  0  0  0  0  0  0  0  0  0
    3.1901    0.0970    0.0000 C   0  0  0  0  0  0  0  0  0  0  0  0
    2.9453    0.8503    0.0000 C   0  0  0  0  0  0  0  0  0  0  0  0
    3.5862    2.1080    0.0000 C   0  0  0  0  0  0  0  0  0  0  0  0
    2.6475   -0.5246    0.0000 C   0  0  0  0  0  0  0  0  0  0  0  0
    2.1410    1.0343    0.0000 C   0  0  0  0  0  0  0  0  0  0  0  0
    7.2228   -1.3206    0.0000 C   0  0  0  0  0  0  0  0  0  0  0  0
    6.9613   -0.0659    0.0000 C   0  0  0  0  0  0  0  0  0  0  0  0
    1.8392   -0.3593    0.0000 C   0  0  0  0  0  0  0  0  0  0  0  0
    1.5842    0.4254    0.0000 C   0  0  0  0  0  0  0  0  0  0  0  0
    7.7487   -0.1518    0.0000 C   0  0  0  0  0  0  0  0  0  0  0  0
    7.1370   -2.1080    0.0000 C   0  0  0  0  0  0  0  0  0  0  0  0
  1 10  2  0
  2  8  1  0
  2 13  1  0
  2 14  1  0
  3 11  1  0
  3 17  1  0
  3 18  1  0
  4 17  2  0
  4 21  1  0
  5  6  1  0
  5 10  1  0
  5 11  1  0
  6  7  1  0
  7  8  1  0
  8  9  2  0
  9 10  1  0
  9 12  1  0
 12 13  2  0
 12 15  1  0
 13 16  1  0
 15 19  2  0
 16 20  2  0
 17 22  1  0
 18 21  2  0
 19 20  1  0
M  END
$$$$
