
     RDKit          2D

 33 36  0  0  0  0  0  0  0  0999 V2000
   19.6254   -0.1331    0.0000 S   0  0  0  0  0  0  0  0  0  0  0  0
   18.9109   -0.5456    0.0000 C   0  0  0  0  0  0  0  0  0  0  0  0
   18.9109   -1.3706    0.0000 N   0  0  0  0  0  0  0  0  0  0  0  0
   19.6254   -1.7831    0.0000 C   0  0  0  0  0  0  0  0  0  0  0  0
   20.3399   -1.3706    0.0000 C   0  0  0  0  0  0  0  0  0  0  0  0
   20.3399   -0.5456    0.0000 C   0  0  0  0  0  0  0  0  0  0  0  0
   18.0859   -0.5456    0.0000 C   0  0  0  0  0  0  0  0  0  0  0  0
   18.0859   -1.3706    0.0000 C   0  0  0  0  0  0  0  0  0  0  0  0
   19.6254   -2.6081    0.0000 C   0  0  0  0  0  0  0  0  0  0  0  0
   18.9109   -3.0206    0.0000 O   0  0  0  0  0  0  0  0  0  0  0  0
   20.3399   -3.0206    0.0000 O   0  0  0  0  0  0  0  0  0  0  0  0
   17.3715   -0.1331    0.0000 N   0  0  0  0  0  0  0  0  0  0  0  0
   16.6570   -0.5456    0.0000 C   0  0  0  0  0  0  0  0  0  0  0  0
   15.9425   -0.1331    0.0000 C   0  0  0  0  0  0  0  0  0  0  0  0
   16.6570   -1.3706    0.0000 O   0  0  0  0  0  0  0  0  0  0  0  0
   15.9425    0.6919    0.0000 N   0  0  0  0  0  0  0  0  0  0  0  0
   16.6570    1.1044    0.0000 O   0  0  0  0  0  0  0  0  0  0  0  0
   16.6570    1.9294    0.0000 C   0  0  0  0  0  0  0  0  0  0  0  0
   14.4434   -0.2906    0.0000 N   0  0  0  0  0  0  0  0  0  0  0  0
   13.9585   -0.9581    0.0000 C   0  0  0  0  0  0  0  0  0  0  0  0
   14.4434   -1.6255    0.0000 S   0  0  0  0  0  0  0  0  0  0  0  0
   15.2281   -1.3705    0.0000 C   0  0  0  0  0  0  0  0  0  0  0  0
   15.2281   -0.5456    0.0000 C   0  0  0  0  0  0  0  0  0  0  0  0
   13.1335   -0.9581    0.0000 N   0  0  0  0  0  0  0  0  0  0  0  0
   17.5026   -1.9540    0.0000 O   0  0  0  0  0  0  0  0  0  0  0  0
   21.0544   -1.7831    0.0000 C   0  0  0  0  0  0  0  0  0  0  0  0
   21.7689   -1.3706    0.0000 S   0  0  0  0  0  0  0  0  0  0  0  0
   23.2680   -1.5282    0.0000 N   0  0  0  0  0  0  0  0  0  0  0  0
   22.4833   -1.7831    0.0000 C   0  0  0  0  0  0  0  0  0  0  0  0
   22.4833   -2.6081    0.0000 N   0  0  0  0  0  0  0  0  0  0  0  0
   23.2680   -2.8630    0.0000 N   0  0  0  0  0  0  0  0  0  0  0  0
   23.7529   -2.1956    0.0000 N   0  0  0  0  0  0  0  0  0  0  0  0
   23.4815   -0.7313    0.0000 C   0  0  0  0  0  0  0  0  0  0  0  0
  2  1  1  1
  2  3  1  0
  3  4  1  0
  4  5  2  0
  5  6  1  0
  1  6  1  0
  2  7  1  0
  7  8  1  0
  8  3  1  0
  4  9  1  0
  9 10  2  0
  9 11  1  0
  7 12  1  1
 12 13  1  0
 13 14  1  0
 14 23  1  0
 13 15  2  0
 14 16  2  0
 16 17  1  0
 17 18  1  0
 19 20  2  0
 20 21  1  0
 21 22  1  0
 22 23  2  0
 19 23  1  0
 20 24  1  0
  8 25  2  0
  5 26  1  0
 26 27  1  0
 27 29  1  0
 28 29  1  0
 29 30  2  0
 30 31  1  0
 31 32  2  0
 28 32  1  0
 28 33  1  0
M  END
$$$$
