288
     RDKit          2D

 36 41  0  0  1  0  0  0  0  0999 V2000
    6.7264    1.4552    0.0000 F   0  0  0  0  0  0  0  0  0  0  0  0
    4.1610   -0.7835    0.0000 O   0  0  0  0  0  0  0  0  0  0  0  0
    4.6989   -1.9889    0.0000 O   0  0  0  0  0  0  0  0  0  0  0  0
    6.2941    1.9174    0.0000 O   0  0  0  0  0  0  0  0  0  0  0  0
    4.3396    0.7204    0.0000 O   0  0  0  0  0  0  0  0  0  0  0  0
    3.0240    0.2902    0.0000 O   0  0  0  0  0  0  0  0  0  0  0  0
    9.9851    2.4490    0.0000 O   0  0  0  0  0  0  0  0  0  0  0  0
    1.9969   -0.7033    0.0000 O   0  0  0  0  0  0  0  0  0  0  0  0
    5.5796   -0.1451    0.0000 C   0  0  0  0  0  0  0  0  0  0  0  0
    6.2941   -0.5576    0.0000 C   0  0  0  0  0  0  0  0  0  0  0  0
    4.9715   -0.6955    0.0000 C   0  0  0  0  0  0  0  0  0  0  0  0
    7.0086   -0.1451    0.0000 C   0  0  0  0  0  0  0  0  0  0  0  0
    5.3057   -1.4444    0.0000 C   0  0  0  0  0  0  0  0  0  0  0  0
    7.0086    0.6799    0.0000 C   0  0  0  0  0  0  0  0  0  0  0  0
    6.1215   -1.3594    0.0000 C   0  0  0  0  0  0  0  0  0  0  0  0
    5.5796    0.6799    0.0000 C   0  0  0  0  0  0  0  0  0  0  0  0
    6.2941    1.0924    0.0000 C   0  0  0  0  0  0  0  0  0  0  0  0
    7.7460    1.1209    0.0000 C   0  0  0  0  0  0  0  0  0  0  0  0
    7.7460   -0.5863    0.0000 C   0  0  0  0  0  0  0  0  0  0  0  0
    5.0492    0.4868    0.0000 C   0  0  0  0  0  0  0  0  0  0  0  0
    3.9929   -1.5813    0.0000 C   0  0  0  0  0  0  0  0  0  0  0  0
    4.3979   -0.1025    0.0000 C   0  0  0  0  0  0  0  0  0  0  0  0
    8.4936   -0.1623    0.0000 C   0  0  0  0  0  0  0  0  0  0  0  0
    8.4936    0.6971    0.0000 C   0  0  0  0  0  0  0  0  0  0  0  0
    3.8220   -2.3884    0.0000 C   0  0  0  0  0  0  0  0  0  0  0  0
    3.2781   -1.1694    0.0000 C   0  0  0  0  0  0  0  0  0  0  0  0
    7.2108    1.7489    0.0000 C   0  0  0  0  0  0  0  0  0  0  0  0
    7.7253    2.0158    0.0000 C   0  0  0  0  0  0  0  0  0  0  0  0
    3.0016   -2.4754    0.0000 C   0  0  0  0  0  0  0  0  0  0  0  0
    2.6654   -1.7220    0.0000 C   0  0  0  0  0  0  0  0  0  0  0  0
    3.5975   -0.3028    0.0000 C   0  0  0  0  0  0  0  0  0  0  0  0
    9.2722    1.1386    0.0000 C   0  0  0  0  0  0  0  0  0  0  0  0
    8.4936    2.4754    0.0000 C   0  0  0  0  0  0  0  0  0  0  0  0
    9.2722    2.0337    0.0000 C   0  0  0  0  0  0  0  0  0  0  0  0
    2.2237    0.0899    0.0000 C   0  0  0  0  0  0  0  0  0  0  0  0
    1.6500    0.6829    0.0000 C   0  0  0  0  0  0  0  0  0  0  0  0
 14  1  1  1
  2 11  1  0
  2 21  1  0
  3 13  1  0
  3 21  1  0
 17  4  1  6
  5 22  2  0
  6 31  1  0
  6 35  1  0
  7 34  2  0
  8 35  2  0
  9 10  1  0
  9 11  1  0
  9 16  1  0
  9 20  1  6
 10 12  1  0
 10 15  1  6
 11 13  1  0
 11 22  1  6
 12 14  1  0
 12 19  1  1
 13 15  1  1
 14 17  1  0
 14 18  1  0
 16 17  1  0
 18 24  1  0
 18 27  1  6
 18 28  1  0
 19 23  1  0
 21 25  1  0
 21 26  1  0
 22 31  1  0
 23 24  1  0
 24 32  2  0
 25 29  1  0
 26 30  1  0
 28 33  2  0
 29 30  1  0
 32 34  1  0
 33 34  1  0
 35 36  1  0
M  END
$$$$
