750
     RDKit          2D

 16 16  0  0  1  0  0  0  0  0999 V2000
    4.5080   -0.6188    0.0000 O   0  0  0  0  0  0  0  0  0  0  0  0
    4.5080    1.0313    0.0000 N   0  0  0  0  0  0  0  0  0  0  0  0
    3.0791   -0.6188    0.0000 N   0  0  0  0  0  0  0  0  0  0  0  0
    3.7935    0.6188    0.0000 C   0  0  0  0  0  0  0  0  0  0  0  0
    4.5080    1.8563    0.0000 C   0  0  0  0  0  0  0  0  0  0  0  0
    5.2224    2.2688    0.0000 C   0  0  0  0  0  0  0  0  0  0  0  0
    3.7935   -0.2063    0.0000 C   0  0  0  0  0  0  0  0  0  0  0  0
    3.0791    1.0313    0.0000 C   0  0  0  0  0  0  0  0  0  0  0  0
    3.0791   -1.4438    0.0000 C   0  0  0  0  0  0  0  0  0  0  0  0
    2.3645   -1.8563    0.0000 C   0  0  0  0  0  0  0  0  0  0  0  0
    5.2224    3.0938    0.0000 C   0  0  0  0  0  0  0  0  0  0  0  0
    3.7935   -1.8563    0.0000 C   0  0  0  0  0  0  0  0  0  0  0  0
    2.3645   -2.6813    0.0000 C   0  0  0  0  0  0  0  0  0  0  0  0
    1.6500   -1.4438    0.0000 C   0  0  0  0  0  0  0  0  0  0  0  0
    3.7935   -2.6813    0.0000 C   0  0  0  0  0  0  0  0  0  0  0  0
    3.0791   -3.0938    0.0000 C   0  0  0  0  0  0  0  0  0  0  0  0
  1  7  2  0
  2  4  1  0
  2  5  1  0
  3  7  1  0
  3  9  1  0
  4  7  1  0
  4  8  1  0
  5  6  1  0
  6 11  1  0
  9 10  2  0
  9 12  1  0
 10 13  1  0
 10 14  1  0
 12 15  2  0
 13 16  2  0
 15 16  1  0
M  END
$$$$
