910
     RDKit          2D

 30 32  0  0  1  0  0  0  0  0999 V2000
    7.9284    4.5423    0.0000 O   0  0  0  0  0  0  0  0  0  0  0  0
    4.5080   -4.1363    0.0000 O   0  0  0  0  0  0  0  0  0  0  0  0
    1.6500   -4.1363    0.0000 O   0  0  0  0  0  0  0  0  0  0  0  0
    4.5080    0.8138    0.0000 C   0  0  0  0  0  0  0  0  0  0  0  0
    5.2886    1.0653    0.0000 C   0  0  0  0  0  0  0  0  0  0  0  0
    4.5080   -0.0112    0.0000 C   0  0  0  0  0  0  0  0  0  0  0  0
    5.7701    0.4013    0.0000 C   0  0  0  0  0  0  0  0  0  0  0  0
    5.2886   -0.2626    0.0000 C   0  0  0  0  0  0  0  0  0  0  0  0
    3.7935    1.2263    0.0000 C   0  0  0  0  0  0  0  0  0  0  0  0
    5.5449    1.8494    0.0000 C   0  0  0  0  0  0  0  0  0  0  0  0
    3.7935   -0.4237    0.0000 C   0  0  0  0  0  0  0  0  0  0  0  0
    4.5080    1.6388    0.0000 C   0  0  0  0  0  0  0  0  0  0  0  0
    3.0791    0.8138    0.0000 C   0  0  0  0  0  0  0  0  0  0  0  0
    3.0791   -0.0112    0.0000 C   0  0  0  0  0  0  0  0  0  0  0  0
    4.9939    2.4635    0.0000 C   0  0  0  0  0  0  0  0  0  0  0  0
    6.3522    2.0196    0.0000 C   0  0  0  0  0  0  0  0  0  0  0  0
    3.7935   -1.2487    0.0000 C   0  0  0  0  0  0  0  0  0  0  0  0
    6.6086    2.8037    0.0000 C   0  0  0  0  0  0  0  0  0  0  0  0
    3.0791   -1.6613    0.0000 C   0  0  0  0  0  0  0  0  0  0  0  0
    7.4158    2.9739    0.0000 C   0  0  0  0  0  0  0  0  0  0  0  0
    3.0791   -2.4863    0.0000 C   0  0  0  0  0  0  0  0  0  0  0  0
    7.6721    3.7581    0.0000 C   0  0  0  0  0  0  0  0  0  0  0  0
    3.7935   -2.8988    0.0000 C   0  0  0  0  0  0  0  0  0  0  0  0
    2.3645   -2.8988    0.0000 C   0  0  0  0  0  0  0  0  0  0  0  0
    7.9668    2.3599    0.0000 C   0  0  0  0  0  0  0  0  0  0  0  0
    3.7935   -3.7238    0.0000 C   0  0  0  0  0  0  0  0  0  0  0  0
    2.3645   -3.7238    0.0000 C   0  0  0  0  0  0  0  0  0  0  0  0
    3.0791   -4.1363    0.0000 C   0  0  0  0  0  0  0  0  0  0  0  0
    6.8879    4.0144    0.0000 C   0  0  0  0  0  0  0  0  0  0  0  0
    8.4563    3.5018    0.0000 C   0  0  0  0  0  0  0  0  0  0  0  0
  1 22  1  0
 26  2  1  1
 27  3  1  6
  4  5  1  0
  4  6  1  0
  4  9  1  0
  4 12  1  1
  5  7  1  1
  5 10  1  0
  6  8  1  1
  6 11  1  0
  7  8  1  0
  9 13  1  0
 10 15  1  6
 10 16  1  0
 11 14  1  0
 11 17  2  0
 13 14  1  0
 16 18  2  0
 17 19  1  0
 18 20  1  0
 19 21  2  0
 20 22  1  0
 20 25  1  1
 21 23  1  0
 21 24  1  0
 22 29  1  0
 22 30  1  0
 23 26  1  0
 24 27  1  0
 26 28  1  0
 27 28  1  0
M  END
$$$$
