
     RDKit          2D

 33 35  0  0  0  0  0  0  0  0999 V2000
   -0.1965    0.0970    0.0000 C   0  0  0  0  0  0  0  0  0  0  0  0
    0.5169    1.3347    0.0000 C   0  0  0  0  0  0  0  0  0  0  0  0
    0.5169    0.5144    0.0000 C   0  0  0  0  0  0  0  0  0  0  0  0
   -1.3176   -1.8589    0.0000 C   0  0  0  0  0  0  0  0  0  0  0  0
   -0.9052   -1.1454    0.0000 C   0  0  0  0  0  0  0  0  0  0  0  0
   -2.1427   -1.8589    0.0000 C   0  0  0  0  0  0  0  0  0  0  0  0
   -0.1965   -0.7231    0.0000 O   0  0  0  0  0  0  0  0  0  0  0  0
    1.2352    1.7472    0.0000 O   0  0  0  0  0  0  0  0  0  0  0  0
    1.9485    1.3347    0.0000 C   0  0  0  0  0  0  0  0  0  0  0  0
   -2.5552   -1.1454    0.0000 C   0  0  0  0  0  0  0  0  0  0  0  0
    1.9485    0.5144    0.0000 O   0  0  0  0  0  0  0  0  0  0  0  0
   -0.9099    0.5144    0.0000 C   0  0  0  0  0  0  0  0  0  0  0  0
   -0.1965    1.7520    0.0000 C   0  0  0  0  0  0  0  0  0  0  0  0
   -1.3176   -0.4319    0.0000 O   0  0  0  0  0  0  0  0  0  0  0  0
   -0.9099    1.3347    0.0000 C   0  0  0  0  0  0  0  0  0  0  0  0
    2.6620    0.0970    0.0000 C   0  0  0  0  0  0  0  0  0  0  0  0
   -2.1427   -0.4319    0.0000 C   0  0  0  0  0  0  0  0  0  0  0  0
    3.3755    0.5144    0.0000 C   0  0  0  0  0  0  0  0  0  0  0  0
    2.6620    1.7520    0.0000 C   0  0  0  0  0  0  0  0  0  0  0  0
    3.3755    1.3347    0.0000 C   0  0  0  0  0  0  0  0  0  0  0  0
   -2.5505   -2.5722    0.0000 N   0  0  0  0  0  0  0  0  0  0  0  0
   -0.9052   -2.5722    0.0000 O   0  0  0  0  0  0  0  0  0  0  0  0
    1.2352    0.1019    0.0000 O   0  0  0  0  0  0  0  0  0  0  0  0
   -1.6233    0.1019    0.0000 N   0  0  0  0  0  0  0  0  0  0  0  0
   -0.1965    2.5722    0.0000 N   0  0  0  0  0  0  0  0  0  0  0  0
   -3.2785   -1.5530    0.0000 O   0  0  0  0  0  0  0  0  0  0  0  0
    2.6620    2.5722    0.0000 N   0  0  0  0  0  0  0  0  0  0  0  0
    1.9438   -1.1405    0.0000 N   0  0  0  0  0  0  0  0  0  0  0  0
   -3.2785   -0.7328    0.0000 C   0  0  0  0  0  0  0  0  0  0  0  0
    2.6620   -0.7231    0.0000 C   0  0  0  0  0  0  0  0  0  0  0  0
   -2.3368    0.5144    0.0000 C   0  0  0  0  0  0  0  0  0  0  0  0
   -3.3755   -2.5722    0.0000 C   0  0  0  0  0  0  0  0  0  0  0  0
   -3.0503    0.1019    0.0000 C   0  0  0  0  0  0  0  0  0  0  0  0
  2  3  1  0
  3  1  1  0
  4  5  1  0
  5  7  1  6
  6  4  1  0
  1  7  1  1
  2  8  1  1
  9  8  1  6
 10 17  1  0
 11  9  1  0
 12  1  1  0
 13  2  1  0
 14  5  1  0
 15 12  1  0
 16 11  1  0
 17 14  1  0
 18 16  2  0
 19  9  1  0
 20 19  1  0
  6 21  1  1
  4 22  1  6
  3 23  1  6
 12 24  1  6
 13 25  1  6
 10 26  1  0
 19 27  1  6
 28 30  1  0
 10 29  1  6
 30 16  1  0
 31 24  1  0
 32 21  1  0
 33 31  1  0
 13 15  1  0
 10  6  1  0
 20 18  1  0
M  END
$$$$
