644
     RDKit          2D

 85 90  0  0  1  0  0  0  0  0999 V2000
   12.8548   -2.6382    0.0000 O   0  0  0  0  0  0  0  0  0  0  0  0
   13.9727   -2.5226    0.0000 O   0  0  0  0  0  0  0  0  0  0  0  0
   10.1767   -3.9328    0.0000 O   0  0  0  0  0  0  0  0  0  0  0  0
   16.8590   -3.2421    0.0000 O   0  0  0  0  0  0  0  0  0  0  0  0
    8.7800   -1.3064    0.0000 O   0  0  0  0  0  0  0  0  0  0  0  0
    3.2703    4.8342    0.0000 O   0  0  0  0  0  0  0  0  0  0  0  0
    2.3500    8.2735    0.0000 O   0  0  0  0  0  0  0  0  0  0  0  0
    3.8213    4.2201    0.0000 O   0  0  0  0  0  0  0  0  0  0  0  0
    5.2179    1.5938    0.0000 O   0  0  0  0  0  0  0  0  0  0  0  0
   10.3562    1.2163    0.0000 O   0  0  0  0  0  0  0  0  0  0  0  0
    7.8960    2.8883    0.0000 O   0  0  0  0  0  0  0  0  0  0  0  0
    7.1271    0.5358    0.0000 O   0  0  0  0  0  0  0  0  0  0  0  0
   12.4834    3.1249    0.0000 O   0  0  0  0  0  0  0  0  0  0  0  0
   13.1495   -4.0365    0.0000 N   0  0  0  0  0  0  0  0  0  0  0  0
   11.2403   -2.9785    0.0000 N   0  0  0  0  0  0  0  0  0  0  0  0
   15.2089   -3.2393    0.0000 N   0  0  0  0  0  0  0  0  0  0  0  0
   10.1383   -1.7503    0.0000 N   0  0  0  0  0  0  0  0  0  0  0  0
   12.3806   -6.3891    0.0000 N   0  0  0  0  0  0  0  0  0  0  0  0
   16.8614   -1.8132    0.0000 N   0  0  0  0  0  0  0  0  0  0  0  0
    3.1485    7.0391    0.0000 N   0  0  0  0  0  0  0  0  0  0  0  0
    4.3339    5.7885    0.0000 N   0  0  0  0  0  0  0  0  0  0  0  0
    9.2927    0.2619    0.0000 N   0  0  0  0  0  0  0  0  0  0  0  0
    5.1795    3.7762    0.0000 N   0  0  0  0  0  0  0  0  0  0  0  0
    6.2815    2.5481    0.0000 N   0  0  0  0  0  0  0  0  0  0  0  0
    8.1907    1.4901    0.0000 N   0  0  0  0  0  0  0  0  0  0  0  0
   12.6753   -7.7873    0.0000 N   0  0  0  0  0  0  0  0  0  0  0  0
   11.3170   -7.3434    0.0000 N   0  0  0  0  0  0  0  0  0  0  0  0
    3.8597    0.7098    0.0000 N   0  0  0  0  0  0  0  0  0  0  0  0
    6.7335    6.3823    0.0000 N   0  0  0  0  0  0  0  0  0  0  0  0
    5.9507    7.4636    0.0000 N   0  0  0  0  0  0  0  0  0  0  0  0
   13.9702   -3.9516    0.0000 C   0  0  0  0  0  0  0  0  0  0  0  0
   14.3044   -4.7059    0.0000 C   0  0  0  0  0  0  0  0  0  0  0  0
   13.6903   -5.2569    0.0000 C   0  0  0  0  0  0  0  0  0  0  0  0
   12.9766   -4.8432    0.0000 C   0  0  0  0  0  0  0  0  0  0  0  0
   12.5985   -3.4224    0.0000 C   0  0  0  0  0  0  0  0  0  0  0  0
   11.7912   -3.5925    0.0000 C   0  0  0  0  0  0  0  0  0  0  0  0
   14.3839   -3.2378    0.0000 C   0  0  0  0  0  0  0  0  0  0  0  0
   11.5350   -4.3767    0.0000 C   0  0  0  0  0  0  0  0  0  0  0  0
   12.0859   -4.9907    0.0000 C   0  0  0  0  0  0  0  0  0  0  0  0
    9.8820   -2.5345    0.0000 C   0  0  0  0  0  0  0  0  0  0  0  0
   10.4330   -3.1486    0.0000 C   0  0  0  0  0  0  0  0  0  0  0  0
    9.0747   -2.7046    0.0000 C   0  0  0  0  0  0  0  0  0  0  0  0
   11.8296   -5.7750    0.0000 C   0  0  0  0  0  0  0  0  0  0  0  0
   15.6227   -2.5255    0.0000 C   0  0  0  0  0  0  0  0  0  0  0  0
    8.8185   -3.4889    0.0000 C   0  0  0  0  0  0  0  0  0  0  0  0
    8.0112   -3.6590    0.0000 C   0  0  0  0  0  0  0  0  0  0  0  0
    9.3694   -4.1030    0.0000 C   0  0  0  0  0  0  0  0  0  0  0  0
   16.4477   -2.5269    0.0000 C   0  0  0  0  0  0  0  0  0  0  0  0
    9.5873   -1.1363    0.0000 C   0  0  0  0  0  0  0  0  0  0  0  0
    2.9756    6.2324    0.0000 C   0  0  0  0  0  0  0  0  0  0  0  0
    2.1549    6.1476    0.0000 C   0  0  0  0  0  0  0  0  0  0  0  0
    9.8436   -0.3521    0.0000 C   0  0  0  0  0  0  0  0  0  0  0  0
    1.8207    6.9019    0.0000 C   0  0  0  0  0  0  0  0  0  0  0  0
    4.8848    5.1744    0.0000 C   0  0  0  0  0  0  0  0  0  0  0  0
    4.9232    2.9920    0.0000 C   0  0  0  0  0  0  0  0  0  0  0  0
   12.1243   -7.1732    0.0000 C   0  0  0  0  0  0  0  0  0  0  0  0
    3.5266    5.6183    0.0000 C   0  0  0  0  0  0  0  0  0  0  0  0
    4.1159    2.8219    0.0000 C   0  0  0  0  0  0  0  0  0  0  0  0
    2.4348    7.4528    0.0000 C   0  0  0  0  0  0  0  0  0  0  0  0
    5.6921    5.3445    0.0000 C   0  0  0  0  0  0  0  0  0  0  0  0
    4.6286    4.3902    0.0000 C   0  0  0  0  0  0  0  0  0  0  0  0
    3.8597    2.0376    0.0000 C   0  0  0  0  0  0  0  0  0  0  0  0
    8.9980    1.6602    0.0000 C   0  0  0  0  0  0  0  0  0  0  0  0
    5.4742    2.3779    0.0000 C   0  0  0  0  0  0  0  0  0  0  0  0
    9.5489    1.0461    0.0000 C   0  0  0  0  0  0  0  0  0  0  0  0
    3.0790    1.7862    0.0000 C   0  0  0  0  0  0  0  0  0  0  0  0
    6.8324    1.9340    0.0000 C   0  0  0  0  0  0  0  0  0  0  0  0
    5.9484    6.1288    0.0000 C   0  0  0  0  0  0  0  0  0  0  0  0
    9.2542    2.4444    0.0000 C   0  0  0  0  0  0  0  0  0  0  0  0
    3.0790    0.9612    0.0000 C   0  0  0  0  0  0  0  0  0  0  0  0
    4.3411    1.3737    0.0000 C   0  0  0  0  0  0  0  0  0  0  0  0
    7.6397    2.1041    0.0000 C   0  0  0  0  0  0  0  0  0  0  0  0
    6.5762    1.1498    0.0000 C   0  0  0  0  0  0  0  0  0  0  0  0
    2.3645    2.1987    0.0000 C   0  0  0  0  0  0  0  0  0  0  0  0
   10.0616    2.6145    0.0000 C   0  0  0  0  0  0  0  0  0  0  0  0
    2.3645    0.5487    0.0000 C   0  0  0  0  0  0  0  0  0  0  0  0
    5.4646    6.7970    0.0000 C   0  0  0  0  0  0  0  0  0  0  0  0
    1.6500    1.7862    0.0000 C   0  0  0  0  0  0  0  0  0  0  0  0
    1.6500    0.9612    0.0000 C   0  0  0  0  0  0  0  0  0  0  0  0
    6.7349    7.2073    0.0000 C   0  0  0  0  0  0  0  0  0  0  0  0
   10.3179    3.3987    0.0000 C   0  0  0  0  0  0  0  0  0  0  0  0
   10.6125    2.0005    0.0000 C   0  0  0  0  0  0  0  0  0  0  0  0
   11.1251    3.5688    0.0000 C   0  0  0  0  0  0  0  0  0  0  0  0
   11.4198    2.1706    0.0000 C   0  0  0  0  0  0  0  0  0  0  0  0
   11.6762    2.9548    0.0000 C   0  0  0  0  0  0  0  0  0  0  0  0
  1 35  2  0
  2 37  2  0
  3 41  2  0
  4 48  2  0
  5 49  2  0
  6 57  2  0
  7 59  2  0
  8 61  2  0
  9 64  2  0
 10 65  2  0
 11 72  2  0
 12 73  1  0
 13 85  1  0
 14 31  1  0
 14 34  1  0
 14 35  1  0
 15 36  1  0
 15 41  1  0
 16 37  1  0
 16 44  1  0
 17 40  1  0
 17 49  1  0
 18 43  1  0
 18 56  2  0
 19 48  1  0
 20 50  1  0
 20 59  1  0
 21 54  1  0
 21 57  1  0
 22 52  1  0
 22 65  1  0
 23 55  1  0
 23 61  1  0
 24 64  1  0
 24 67  1  0
 25 63  1  0
 25 72  1  0
 26 56  1  0
 27 56  1  0
 28 70  1  0
 28 71  1  0
 29 68  1  0
 29 80  1  0
 30 77  1  0
 30 80  2  0
 31 32  1  0
 31 37  1  0
 32 33  1  0
 33 34  1  0
 35 36  1  0
 36 38  1  0
 38 39  1  0
 39 43  1  0
 40 41  1  0
 40 42  1  0
 42 45  1  0
 44 48  1  0
 45 46  1  0
 45 47  1  0
 49 52  1  0
 50 51  1  0
 50 57  1  0
 51 53  1  0
 53 59  1  0
 54 60  1  0
 54 61  1  0
 55 58  1  0
 55 64  1  0
 58 62  1  0
 60 68  1  0
 62 66  1  0
 62 71  2  0
 63 65  1  0
 63 69  1  0
 66 70  2  0
 66 74  1  0
 67 72  1  0
 67 73  1  0
 68 77  2  0
 69 75  1  0
 70 76  1  0
 74 78  2  0
 75 81  2  0
 75 82  1  0
 76 79  2  0
 78 79  1  0
 81 83  1  0
 82 84  2  0
 83 85  2  0
 84 85  1  0
M  END
$$$$
