903
     RDKit          2D

 19 19  0  0  0  0  0  0  0  0999 V2000
    1.6500    1.0808    0.0000 Cl  0  0  0  0  0  0  0  0  0  0  0  0
    1.6500   -0.5693    0.0000 Cl  0  0  0  0  0  0  0  0  0  0  0  0
    3.0791   -1.3943    0.0000 O   0  0  0  0  0  0  0  0  0  0  0  0
    2.3645    2.3183    0.0000 O   0  0  0  0  0  0  0  0  0  0  0  0
    4.5080   -3.0443    0.0000 O   0  0  0  0  0  0  0  0  0  0  0  0
    3.0791   -3.0443    0.0000 O   0  0  0  0  0  0  0  0  0  0  0  0
    3.0791    1.0808    0.0000 C   0  0  0  0  0  0  0  0  0  0  0  0
    3.7935    2.3183    0.0000 C   0  0  0  0  0  0  0  0  0  0  0  0
    3.0791    1.9058    0.0000 C   0  0  0  0  0  0  0  0  0  0  0  0
    3.7935    3.1433    0.0000 C   0  0  0  0  0  0  0  0  0  0  0  0
    2.3645    0.6683    0.0000 C   0  0  0  0  0  0  0  0  0  0  0  0
    3.7935    0.6683    0.0000 C   0  0  0  0  0  0  0  0  0  0  0  0
    3.0791   -0.5693    0.0000 C   0  0  0  0  0  0  0  0  0  0  0  0
    2.3645   -0.1568    0.0000 C   0  0  0  0  0  0  0  0  0  0  0  0
    3.7935   -0.1568    0.0000 C   0  0  0  0  0  0  0  0  0  0  0  0
    4.5080    3.5558    0.0000 C   0  0  0  0  0  0  0  0  0  0  0  0
    4.5080    1.9058    0.0000 C   0  0  0  0  0  0  0  0  0  0  0  0
    3.7935   -1.8068    0.0000 C   0  0  0  0  0  0  0  0  0  0  0  0
    3.7935   -2.6318    0.0000 C   0  0  0  0  0  0  0  0  0  0  0  0
  1 11  1  0
  2 14  1  0
  3 13  1  0
  3 18  1  0
  4  9  2  0
  5 19  1  0
  6 19  2  0
  7  9  1  0
  7 11  2  0
  7 12  1  0
  8  9  1  0
  8 10  1  0
  8 17  2  3
 10 16  1  0
 11 14  1  0
 12 15  2  0
 13 14  2  0
 13 15  1  0
 18 19  1  0
M  END
$$$$
