
     RDKit          2D

 54 56  0  0  0  0  0  0  0  0999 V2000
   -3.0554    1.8795    0.0000 C   0  0  0  0  0  0  0  0  0  0  0  0
    2.5233    1.0041    0.0000 C   0  0  0  0  0  0  0  0  0  0  0  0
   -1.6822    0.1115    0.0000 C   0  0  0  0  0  0  0  0  0  0  0  0
    0.3374    0.9526    0.0000 C   0  0  0  0  0  0  0  0  0  0  0  0
   -4.0682    2.7550    0.0000 N   0  0  0  0  0  0  0  0  0  0  0  0
    1.1157    0.7123    0.0000 N   0  0  0  0  0  0  0  0  0  0  0  0
    3.1355    1.5534    0.0000 N   0  0  0  0  0  0  0  0  0  0  0  0
    1.7336    1.2616    0.0000 C   0  0  0  0  0  0  0  0  0  0  0  0
   -3.8793    1.9483    0.0000 C   0  0  0  0  0  0  0  0  0  0  0  0
   -1.0642    0.6608    0.0000 N   0  0  0  0  0  0  0  0  0  0  0  0
    1.5620    2.0684    0.0000 C   0  0  0  0  0  0  0  0  0  0  0  0
   -2.4717    0.3690    0.0000 C   0  0  0  0  0  0  0  0  0  0  0  0
   -5.6474   -2.3259    0.0000 C   0  0  0  0  0  0  0  0  0  0  0  0
    3.9250    1.2959    0.0000 C   0  0  0  0  0  0  0  0  0  0  0  0
    4.5315    1.8452    0.0000 C   0  0  0  0  0  0  0  0  0  0  0  0
   -2.7350    2.6520    0.0000 C   0  0  0  0  0  0  0  0  0  0  0  0
   -2.6434    1.1758    0.0000 C   0  0  0  0  0  0  0  0  0  0  0  0
   -3.0725   -0.1973    0.0000 N   0  0  0  0  0  0  0  0  0  0  0  0
   -3.8622    0.0600    0.0000 C   0  0  0  0  0  0  0  0  0  0  0  0
   -0.2746    0.4034    0.0000 C   0  0  0  0  0  0  0  0  0  0  0  0
    1.6822    2.8237    0.0000 C   0  0  0  0  0  0  0  0  0  0  0  0
   -3.3644    3.1841    0.0000 C   0  0  0  0  0  0  0  0  0  0  0  0
   -5.0637   -2.9037    0.0000 O   0  0  0  0  0  0  0  0  0  0  0  0
   -1.5104   -0.6951    0.0000 O   0  0  0  0  0  0  0  0  0  0  0  0
    2.6949    0.1973    0.0000 O   0  0  0  0  0  0  0  0  0  0  0  0
    0.1658    1.7594    0.0000 O   0  0  0  0  0  0  0  0  0  0  0  0
   -4.4801   -0.4892    0.0000 C   0  0  0  0  0  0  0  0  0  0  0  0
    4.0853    0.4892    0.0000 C   0  0  0  0  0  0  0  0  0  0  0  0
   -6.4541   -2.5490    0.0000 O   0  0  0  0  0  0  0  0  0  0  0  0
    4.3599    2.6520    0.0000 O   0  0  0  0  0  0  0  0  0  0  0  0
   -4.0338    0.8668    0.0000 O   0  0  0  0  0  0  0  0  0  0  0  0
    1.0928    3.5789    0.0000 O   0  0  0  0  0  0  0  0  0  0  0  0
   -5.4414   -1.5305    0.0000 N   0  0  0  0  0  0  0  0  0  0  0  0
   -5.2697   -3.6991    0.0000 C   0  0  0  0  0  0  0  0  0  0  0  0
    5.3212    1.5878    0.0000 N   0  0  0  0  0  0  0  0  0  0  0  0
   -4.6575   -1.2959    0.0000 C   0  0  0  0  0  0  0  0  0  0  0  0
   -0.1030   -0.4034    0.0000 C   0  0  0  0  0  0  0  0  0  0  0  0
    2.3688    2.9438    0.0000 O   0  0  0  0  0  0  0  0  0  0  0  0
    4.8749    0.2316    0.0000 C   0  0  0  0  0  0  0  0  0  0  0  0
    0.8525   -1.4676    0.0000 S   0  0  0  0  0  0  0  0  0  0  0  0
   -1.9568    2.9095    0.0000 C   0  0  0  0  0  0  0  0  0  0  0  0
    0.6808   -0.6608    0.0000 C   0  0  0  0  0  0  0  0  0  0  0  0
   -3.2099    3.9908    0.0000 C   0  0  0  0  0  0  0  0  0  0  0  0
   -4.5545   -3.2813    0.0000 C   0  0  0  0  0  0  0  0  0  0  0  0
   -4.6690   -4.2656    0.0000 C   0  0  0  0  0  0  0  0  0  0  0  0
   -6.0593   -3.9222    0.0000 C   0  0  0  0  0  0  0  0  0  0  0  0
    1.6420   -1.7251    0.0000 C   0  0  0  0  0  0  0  0  0  0  0  0
    5.4928    0.7810    0.0000 C   0  0  0  0  0  0  0  0  0  0  0  0
    5.0466   -0.5750    0.0000 C   0  0  0  0  0  0  0  0  0  0  0  0
   -1.8023    3.7334    0.0000 C   0  0  0  0  0  0  0  0  0  0  0  0
   -2.4260    4.2656    0.0000 C   0  0  0  0  0  0  0  0  0  0  0  0
    5.8361   -0.8324    0.0000 C   0  0  0  0  0  0  0  0  0  0  0  0
    6.2767    0.5407    0.0000 C   0  0  0  0  0  0  0  0  0  0  0  0
    6.4541   -0.2832    0.0000 C   0  0  0  0  0  0  0  0  0  0  0  0
  2  8  1  0
  3 12  1  0
  4 20  1  0
  5  9  1  0
  6  4  1  0
  7  2  1  0
  8  6  1  0
  9  1  2  0
 10  3  1  0
  8 11  1  1
 12 17  1  1
 13 33  1  0
 14  7  1  0
 15 14  1  0
 16  1  1  0
 17  1  1  0
 18 12  1  0
 19 18  1  0
 20 10  1  0
 21 11  1  0
 22 16  2  0
 23 13  1  0
 24  3  2  0
 25  2  2  0
 26  4  2  0
 27 19  1  0
 14 28  1  6
 29 13  2  0
 30 15  2  0
 31 19  2  0
 32 21  2  0
 33 36  1  0
 34 23  1  0
 35 15  1  0
 36 27  1  0
 20 37  1  6
 38 21  1  0
 39 28  1  0
 40 42  1  0
 41 16  1  0
 42 37  1  0
 43 22  1  0
 44 34  1  0
 45 34  1  0
 46 34  1  0
 47 40  1  0
 48 39  2  0
 49 39  1  0
 50 41  2  0
 51 50  1  0
 52 49  2  0
 53 48  1  0
 54 52  1  0
  5 22  1  0
 51 43  2  0
 54 53  2  0
M  END
$$$$
