287
     RDKit          2D

 35 36  0  0  1  0  0  0  0  0999 V2000
   10.0142    3.6771    0.0000 F   0  0  0  0  0  0  0  0  0  0  0  0
   11.6642    3.6771    0.0000 F   0  0  0  0  0  0  0  0  0  0  0  0
   10.8392    4.5021    0.0000 F   0  0  0  0  0  0  0  0  0  0  0  0
    7.0839   -4.0348    0.0000 O   0  0  0  0  0  0  0  0  0  0  0  0
    9.4334   -2.3278    0.0000 O   0  0  0  0  0  0  0  0  0  0  0  0
    7.9813    0.3771    0.0000 O   0  0  0  0  0  0  0  0  0  0  0  0
    9.4103    1.2021    0.0000 O   0  0  0  0  0  0  0  0  0  0  0  0
    3.0477    0.3058    0.0000 O   0  0  0  0  0  0  0  0  0  0  0  0
    2.6062   -1.0532    0.0000 O   0  0  0  0  0  0  0  0  0  0  0  0
    7.3139   -2.5828    0.0000 C   0  0  0  0  0  0  0  0  0  0  0  0
    7.9813   -2.0979    0.0000 C   0  0  0  0  0  0  0  0  0  0  0  0
    7.5688   -3.3674    0.0000 C   0  0  0  0  0  0  0  0  0  0  0  0
    8.6488   -2.5828    0.0000 C   0  0  0  0  0  0  0  0  0  0  0  0
    8.3938   -3.3674    0.0000 C   0  0  0  0  0  0  0  0  0  0  0  0
    6.5293   -2.3278    0.0000 C   0  0  0  0  0  0  0  0  0  0  0  0
    7.9813   -1.2729    0.0000 C   0  0  0  0  0  0  0  0  0  0  0  0
    5.9162   -2.8799    0.0000 C   0  0  0  0  0  0  0  0  0  0  0  0
    8.6958   -0.8604    0.0000 C   0  0  0  0  0  0  0  0  0  0  0  0
    8.6958   -0.0354    0.0000 C   0  0  0  0  0  0  0  0  0  0  0  0
    5.1315   -2.6250    0.0000 C   0  0  0  0  0  0  0  0  0  0  0  0
    4.9600   -1.8180    0.0000 C   0  0  0  0  0  0  0  0  0  0  0  0
    9.4103    0.3771    0.0000 C   0  0  0  0  0  0  0  0  0  0  0  0
    4.1754   -1.5631    0.0000 C   0  0  0  0  0  0  0  0  0  0  0  0
    4.0039   -0.7560    0.0000 C   0  0  0  0  0  0  0  0  0  0  0  0
   10.1248    1.6146    0.0000 C   0  0  0  0  0  0  0  0  0  0  0  0
    3.2192   -0.5011    0.0000 C   0  0  0  0  0  0  0  0  0  0  0  0
   10.1248    2.4396    0.0000 C   0  0  0  0  0  0  0  0  0  0  0  0
   10.8392    1.2021    0.0000 C   0  0  0  0  0  0  0  0  0  0  0  0
    2.2631    0.5608    0.0000 C   0  0  0  0  0  0  0  0  0  0  0  0
   10.8392    2.8521    0.0000 C   0  0  0  0  0  0  0  0  0  0  0  0
   11.5538    1.6146    0.0000 C   0  0  0  0  0  0  0  0  0  0  0  0
   11.5538    2.4396    0.0000 C   0  0  0  0  0  0  0  0  0  0  0  0
    1.6500    0.0087    0.0000 C   0  0  0  0  0  0  0  0  0  0  0  0
    2.0916    1.3678    0.0000 C   0  0  0  0  0  0  0  0  0  0  0  0
   10.8392    3.6771    0.0000 C   0  0  0  0  0  0  0  0  0  0  0  0
  1 35  1  0
  2 35  1  0
  3 35  1  0
 12  4  1  6
 13  5  1  6
 19  6  1  1
  7 22  1  0
  7 25  1  0
  8 26  1  0
  8 29  1  0
  9 26  2  0
 10 11  1  0
 10 12  1  0
 10 15  1  6
 11 13  1  0
 11 16  1  1
 12 14  1  0
 13 14  1  0
 15 17  1  0
 16 18  2  0
 17 20  2  0
 18 19  1  0
 19 22  1  0
 20 21  1  0
 21 23  1  0
 23 24  1  0
 24 26  1  0
 25 27  2  0
 25 28  1  0
 27 30  1  0
 28 31  2  0
 29 33  1  0
 29 34  1  0
 30 32  2  0
 30 35  1  0
 31 32  1  0
M  END
$$$$
