
     RDKit          2D

 27 29  0  0  1  0  0  0  0  0999 V2000
    7.1599   -1.2636    0.0000 C   0  0  0  0  0  0  0  0  0  0  0  0
    7.1599   -0.4386    0.0000 N   0  0  0  0  0  0  0  0  0  0  0  0
    6.4454   -1.6761    0.0000 C   0  0  0  0  0  0  0  0  0  0  0  0
    5.7310   -1.2636    0.0000 C   0  0  0  0  0  0  0  0  0  0  0  0
    5.0165   -1.6761    0.0000 S   0  0  0  0  0  0  0  0  0  0  0  0
    5.0165   -2.5011    0.0000 C   0  0  0  0  0  0  0  0  0  0  0  0
    4.3020   -1.2636    0.0000 C   0  0  0  0  0  0  0  0  0  0  0  0
    3.5875   -1.6761    0.0000 C   0  0  0  0  0  0  0  0  0  0  0  0
    3.5013   -2.4966    0.0000 O   0  0  0  0  0  0  0  0  0  0  0  0
    2.6943   -2.6681    0.0000 C   0  0  0  0  0  0  0  0  0  0  0  0
    2.3588   -3.4218    0.0000 N   0  0  0  0  0  0  0  0  0  0  0  0
    2.7713   -4.1362    0.0000 C   0  0  0  0  0  0  0  0  0  0  0  0
    2.2192   -4.7493    0.0000 N   0  0  0  0  0  0  0  0  0  0  0  0
    1.4656   -4.4138    0.0000 C   0  0  0  0  0  0  0  0  0  0  0  0
    0.7119   -4.7493    0.0000 C   0  0  0  0  0  0  0  0  0  0  0  0
    0.6257   -5.5698    0.0000 N   0  0  0  0  0  0  0  0  0  0  0  0
    0.0445   -4.2644    0.0000 N   0  0  0  0  0  0  0  0  0  0  0  0
    0.1307   -3.4439    0.0000 C   0  0  0  0  0  0  0  0  0  0  0  0
    0.8844   -3.1084    0.0000 N   0  0  0  0  0  0  0  0  0  0  0  0
    1.5518   -3.5933    0.0000 C   0  0  0  0  0  0  0  0  0  0  0  0
    2.2818   -1.9536    0.0000 C   0  0  0  0  0  0  0  0  0  0  0  0
    1.4614   -1.8674    0.0000 O   0  0  0  0  0  0  0  0  0  0  0  0
    2.8339   -1.3405    0.0000 C   0  0  0  0  0  0  0  0  0  0  0  0
    2.6623   -0.5335    0.0000 O   0  0  0  0  0  0  0  0  0  0  0  0
    7.8744   -1.6761    0.0000 C   0  0  0  0  0  0  0  0  0  0  0  0
    8.5888   -1.2636    0.0000 O   0  0  0  0  0  0  0  0  0  0  0  0
    7.8744   -2.5011    0.0000 O   0  0  0  0  0  0  0  0  0  0  0  0
  1  2  1  6
  1  3  1  0
  3  4  1  0
  4  5  1  0
  5  6  1  0
  5  7  1  0
  8  7  1  1
  8  9  1  0
  9 10  1  0
 10 11  1  1
 11 12  1  0
 12 13  2  0
 13 14  1  0
 14 15  2  0
 15 16  1  0
 15 17  1  0
 17 18  2  0
 18 19  1  0
 19 20  2  0
 11 20  1  0
 14 20  1  0
 10 21  1  0
 21 22  1  6
 21 23  1  0
  8 23  1  0
 23 24  1  6
  1 25  1  0
 25 26  1  0
 25 27  2  0
M  CHG  2   5   1  26  -1
M  END
$$$$
