457
     RDKit          2D

 28 31  0  0  0  0  0  0  0  0999 V2000
    3.6702    2.3966    0.0000 O   0  0  0  0  0  0  0  0  0  0  0  0
    2.8695    0.3387    0.0000 O   0  0  0  0  0  0  0  0  0  0  0  0
   10.1550    0.3540    0.0000 O   0  0  0  0  0  0  0  0  0  0  0  0
   10.1550   -1.3358    0.0000 O   0  0  0  0  0  0  0  0  0  0  0  0
    5.8137    0.3341    0.0000 N   0  0  0  0  0  0  0  0  0  0  0  0
    4.3847    1.1591    0.0000 N   0  0  0  0  0  0  0  0  0  0  0  0
    7.2426    0.3341    0.0000 N   0  0  0  0  0  0  0  0  0  0  0  0
    6.5281   -0.9034    0.0000 N   0  0  0  0  0  0  0  0  0  0  0  0
    7.2426   -2.1409    0.0000 N   0  0  0  0  0  0  0  0  0  0  0  0
    5.0992   -0.0784    0.0000 C   0  0  0  0  0  0  0  0  0  0  0  0
    5.8137    1.1591    0.0000 C   0  0  0  0  0  0  0  0  0  0  0  0
    4.3847    0.3341    0.0000 C   0  0  0  0  0  0  0  0  0  0  0  0
    5.0992    1.5716    0.0000 C   0  0  0  0  0  0  0  0  0  0  0  0
    6.5281   -0.0784    0.0000 C   0  0  0  0  0  0  0  0  0  0  0  0
    3.6702    1.5716    0.0000 C   0  0  0  0  0  0  0  0  0  0  0  0
    7.9571   -0.0784    0.0000 C   0  0  0  0  0  0  0  0  0  0  0  0
    2.9558    1.1591    0.0000 C   0  0  0  0  0  0  0  0  0  0  0  0
    7.9571   -0.9034    0.0000 C   0  0  0  0  0  0  0  0  0  0  0  0
    7.2426   -1.3159    0.0000 C   0  0  0  0  0  0  0  0  0  0  0  0
    8.6946    0.3628    0.0000 C   0  0  0  0  0  0  0  0  0  0  0  0
    8.6946   -1.3445    0.0000 C   0  0  0  0  0  0  0  0  0  0  0  0
    2.2020    1.4947    0.0000 C   0  0  0  0  0  0  0  0  0  0  0  0
    9.4421   -0.0612    0.0000 C   0  0  0  0  0  0  0  0  0  0  0  0
    9.4421   -0.9205    0.0000 C   0  0  0  0  0  0  0  0  0  0  0  0
    1.6500    0.8816    0.0000 C   0  0  0  0  0  0  0  0  0  0  0  0
    2.0625    0.1671    0.0000 C   0  0  0  0  0  0  0  0  0  0  0  0
   10.1518    1.1790    0.0000 C   0  0  0  0  0  0  0  0  0  0  0  0
   10.8711   -0.9261    0.0000 C   0  0  0  0  0  0  0  0  0  0  0  0
  1 15  2  0
  2 17  1  0
  2 26  1  0
  3 23  1  0
  3 27  1  0
  4 24  1  0
  4 28  1  0
  5 10  1  0
  5 11  1  0
  5 14  1  0
  6 12  1  0
  6 13  1  0
  6 15  1  0
  7 14  2  0
  7 16  1  0
  8 14  1  0
  8 19  2  0
  9 19  1  0
 10 12  1  0
 11 13  1  0
 15 17  1  0
 16 18  2  0
 16 20  1  0
 17 22  2  0
 18 19  1  0
 18 21  1  0
 20 23  2  0
 21 24  2  0
 22 25  1  0
 23 24  1  0
 25 26  2  0
M  END
$$$$
