 
     RDKit          2D

 43 46  0  0  1  0  0  0  0  0999 V2000
    7.3427  -14.2728    0.0000 C   0  0  0  0  0  0  0  0  0  0  0  0
    7.3427  -15.0978    0.0000 C   0  0  0  0  0  0  0  0  0  0  0  0
    8.0571  -15.5103    0.0000 C   0  0  0  0  0  0  0  0  0  0  0  0
    8.7717  -15.0978    0.0000 C   0  0  0  0  0  0  0  0  0  0  0  0
    8.7717  -14.2728    0.0000 C   0  0  0  0  0  0  0  0  0  0  0  0
    8.0571  -13.8603    0.0000 C   0  0  0  0  0  0  0  0  0  0  0  0
    9.4861  -15.5103    0.0000 C   0  0  0  0  0  0  0  0  0  0  0  0
   10.2006  -15.0978    0.0000 C   0  0  0  0  0  0  0  0  0  0  0  0
   10.2006  -14.2728    0.0000 C   0  0  0  0  0  0  0  0  0  0  0  0
    9.4861  -13.8603    0.0000 C   0  0  0  0  0  0  0  0  0  0  0  0
   10.9151  -15.5103    0.0000 C   0  0  0  0  0  0  0  0  0  0  0  0
   11.6296  -15.0978    0.0000 C   0  0  0  0  0  0  0  0  0  0  0  0
   11.6296  -14.2728    0.0000 C   0  0  0  0  0  0  0  0  0  0  0  0
   10.9151  -13.8603    0.0000 C   0  0  0  0  0  0  0  0  0  0  0  0
   12.3440  -15.5103    0.0000 C   0  0  0  0  0  0  0  0  0  0  0  0
   13.0586  -15.0978    0.0000 C   0  0  0  0  0  0  0  0  0  0  0  0
   13.0586  -14.2728    0.0000 C   0  0  0  0  0  0  0  0  0  0  0  0
   12.3440  -13.8603    0.0000 C   0  0  0  0  0  0  0  0  0  0  0  0
    8.0571  -16.3352    0.0000 O   0  0  0  0  0  0  0  0  0  0  0  0
    9.4861  -16.3354    0.0000 O   0  0  0  0  0  0  0  0  0  0  0  0
   10.9151  -16.3352    0.0000 O   0  0  0  0  0  0  0  0  0  0  0  0
   12.3440  -16.3353    0.0000 O   0  0  0  0  0  0  0  0  0  0  0  0
   13.7864  -13.8524    0.0000 O   0  0  0  0  0  0  0  0  0  0  0  0
   13.7864  -15.5182    0.0000 C   0  0  0  0  0  0  0  0  0  0  0  0
   14.4979  -15.1076    0.0000 N   0  0  0  0  0  0  0  0  0  0  0  0
   13.7862  -16.3353    0.0000 O   0  0  0  0  0  0  0  0  0  0  0  0
   15.1939  -15.5097    0.0000 C   0  0  0  0  0  0  0  0  0  0  0  0
   15.8979  -15.1033    0.0000 N   0  0  0  0  0  0  0  0  0  0  0  0
   16.5978  -15.5075    0.0000 C   0  0  0  0  0  0  0  0  0  0  0  0
   17.2998  -15.1021    0.0000 C   0  0  0  0  0  0  0  0  0  0  0  0
   18.0006  -15.5069    0.0000 C   0  0  0  0  0  0  0  0  0  0  0  0
   18.7022  -15.1018    0.0000 C   0  0  0  0  0  0  0  0  0  0  0  0
   19.4032  -15.5067    0.0000 C   0  0  0  0  0  0  0  0  0  0  0  0
   20.1047  -15.1018    0.0000 N   0  0  0  0  0  0  0  0  0  0  0  0
   19.4032  -16.3352    0.0000 C   0  0  0  0  0  0  0  0  0  0  0  0
   18.6773  -16.7545    0.0000 O   0  0  0  0  0  0  0  0  0  0  0  0
   20.1062  -16.7412    0.0000 O   0  0  0  0  0  0  0  0  0  0  0  0
    9.4861  -13.0353    0.0000 C   0  0  0  0  0  0  0  0  0  0  0  0
    8.7728  -13.4485    0.0000 O   0  0  0  0  0  0  0  0  0  0  0  0
   12.3440  -13.0353    0.0000 N   0  0  0  0  0  0  0  0  0  0  0  0
   11.6220  -12.6184    0.0000 C   0  0  0  0  0  0  0  0  0  0  0  0
   13.0510  -12.6271    0.0000 C   0  0  0  0  0  0  0  0  0  0  0  0
   11.6296  -15.9229    0.0000 O   0  0  0  0  0  0  0  0  0  0  0  0
  1  2  2  0
  2  3  1  0
  3  4  2  0
  4  5  1  0
  5  6  2  0
  1  6  1  0
  4  7  1  0
  7  8  1  0
  8  9  1  0
  9 10  1  0
  5 10  1  0
  8 11  2  0
 11 12  1  0
 12 13  1  0
 13 14  1  1
  9 14  1  1
 12 15  1  0
 15 16  1  0
 16 17  2  0
 17 18  1  0
 13 18  1  0
  3 19  1  0
  7 20  2  0
 11 21  1  0
 15 22  2  0
 17 23  1  0
 16 24  1  0
 24 25  1  0
 24 26  2  0
 25 27  1  0
 27 28  1  0
 28 29  1  0
 29 30  1  0
 30 31  1  0
 31 32  1  0
 32 33  1  0
 33 34  1  6
 33 35  1  0
 35 36  2  0
 35 37  1  0
 10 38  1  6
 10 39  1  0
 18 40  1  6
 40 41  1  0
 40 42  1  0
 12 43  1  6
M  END
$$$$
