246
     RDKit          2D

 28 32  0  0  0  0  0  0  0  0999 V2000
    5.8073    3.0921    0.0000 Cl  0  0  0  0  0  0  0  0  0  0  0  0
    1.6500   -1.3068    0.0000 S   0  0  0  0  0  0  0  0  0  0  0  0
   10.0379    2.2671    0.0000 O   0  0  0  0  0  0  0  0  0  0  0  0
    5.0928    0.2045    0.0000 N   0  0  0  0  0  0  0  0  0  0  0  0
    3.6638   -0.6205    0.0000 N   0  0  0  0  0  0  0  0  0  0  0  0
    2.2004   -0.6988    0.0000 N   0  0  0  0  0  0  0  0  0  0  0  0
    8.7314    2.9310    0.0000 N   0  0  0  0  0  0  0  0  0  0  0  0
    5.0928   -0.6205    0.0000 C   0  0  0  0  0  0  0  0  0  0  0  0
    4.3783    0.6170    0.0000 C   0  0  0  0  0  0  0  0  0  0  0  0
    4.3783   -1.0330    0.0000 C   0  0  0  0  0  0  0  0  0  0  0  0
    3.6638    0.2045    0.0000 C   0  0  0  0  0  0  0  0  0  0  0  0
    5.8073    0.6170    0.0000 C   0  0  0  0  0  0  0  0  0  0  0  0
    5.8073    1.4420    0.0000 C   0  0  0  0  0  0  0  0  0  0  0  0
    2.9494   -1.0330    0.0000 C   0  0  0  0  0  0  0  0  0  0  0  0
    6.5218    1.8546    0.0000 C   0  0  0  0  0  0  0  0  0  0  0  0
    2.8643   -1.8488    0.0000 C   0  0  0  0  0  0  0  0  0  0  0  0
    7.9507    1.8546    0.0000 C   0  0  0  0  0  0  0  0  0  0  0  0
    7.2362    1.4420    0.0000 C   0  0  0  0  0  0  0  0  0  0  0  0
    7.9507    2.6796    0.0000 C   0  0  0  0  0  0  0  0  0  0  0  0
    6.5218    2.6796    0.0000 C   0  0  0  0  0  0  0  0  0  0  0  0
    8.7314    1.6031    0.0000 C   0  0  0  0  0  0  0  0  0  0  0  0
    2.0570   -2.0189    0.0000 C   0  0  0  0  0  0  0  0  0  0  0  0
    7.2362    3.0921    0.0000 C   0  0  0  0  0  0  0  0  0  0  0  0
    9.2129    2.2671    0.0000 C   0  0  0  0  0  0  0  0  0  0  0  0
    3.4153   -2.4628    0.0000 C   0  0  0  0  0  0  0  0  0  0  0  0
    1.8007   -2.8031    0.0000 C   0  0  0  0  0  0  0  0  0  0  0  0
    3.1590   -3.2470    0.0000 C   0  0  0  0  0  0  0  0  0  0  0  0
    2.3517   -3.4171    0.0000 C   0  0  0  0  0  0  0  0  0  0  0  0
  1 20  1  0
  2  6  1  0
  2 22  1  0
  3 24  2  0
  4  8  1  0
  4  9  1  0
  4 12  1  0
  5 10  1  0
  5 11  1  0
  5 14  1  0
  6 14  2  0
  7 19  1  0
  7 24  1  0
  8 10  1  0
  9 11  1  0
 12 13  1  0
 13 15  1  0
 14 16  1  0
 15 18  2  0
 15 20  1  0
 16 22  2  0
 16 25  1  0
 17 18  1  0
 17 19  2  0
 17 21  1  0
 19 23  1  0
 20 23  2  0
 21 24  1  0
 22 26  1  0
 25 27  2  0
 26 28  2  0
 27 28  1  0
M  END
$$$$
