719
     RDKit          2D

 22 25  0  0  0  0  0  0  0  0999 V2000
    4.0285   -1.7286    0.0000 N   0  0  0  0  0  0  0  0  0  0  0  0
    2.6643    0.5102    0.0000 N   0  0  0  0  0  0  0  0  0  0  0  0
    4.0285   -0.0786    0.0000 C   0  0  0  0  0  0  0  0  0  0  0  0
    4.7429   -0.4911    0.0000 C   0  0  0  0  0  0  0  0  0  0  0  0
    3.3140   -0.4911    0.0000 C   0  0  0  0  0  0  0  0  0  0  0  0
    4.7429   -1.3161    0.0000 C   0  0  0  0  0  0  0  0  0  0  0  0
    3.3139   -1.3161    0.0000 C   0  0  0  0  0  0  0  0  0  0  0  0
    4.0285    0.7464    0.0000 C   0  0  0  0  0  0  0  0  0  0  0  0
    4.7718    1.1043    0.0000 C   0  0  0  0  0  0  0  0  0  0  0  0
    3.2852    1.1043    0.0000 C   0  0  0  0  0  0  0  0  0  0  0  0
    4.9554    1.9086    0.0000 C   0  0  0  0  0  0  0  0  0  0  0  0
    4.4410    2.5536    0.0000 C   0  0  0  0  0  0  0  0  0  0  0  0
    3.6160    2.5536    0.0000 C   0  0  0  0  0  0  0  0  0  0  0  0
    3.1016    1.9086    0.0000 C   0  0  0  0  0  0  0  0  0  0  0  0
    4.0285   -2.5536    0.0000 C   0  0  0  0  0  0  0  0  0  0  0  0
    5.3926    0.5102    0.0000 C   0  0  0  0  0  0  0  0  0  0  0  0
    5.7725    2.1745    0.0000 C   0  0  0  0  0  0  0  0  0  0  0  0
    2.2844    2.1745    0.0000 C   0  0  0  0  0  0  0  0  0  0  0  0
    6.2157    0.7571    0.0000 C   0  0  0  0  0  0  0  0  0  0  0  0
    6.4070    1.5949    0.0000 C   0  0  0  0  0  0  0  0  0  0  0  0
    1.6500    1.5950    0.0000 C   0  0  0  0  0  0  0  0  0  0  0  0
    1.8412    0.7571    0.0000 C   0  0  0  0  0  0  0  0  0  0  0  0
  1  6  1  0
  1  7  1  0
  1 15  1  0
  2 10  2  0
  2 22  1  0
  3  4  1  0
  3  5  1  0
  3  8  2  0
  4  6  1  0
  5  7  1  0
  8  9  1  0
  8 10  1  0
  9 11  2  0
  9 16  1  0
 10 14  1  0
 11 12  1  0
 11 17  1  0
 12 13  1  0
 13 14  1  0
 14 18  2  0
 16 19  2  0
 17 20  2  0
 18 21  1  0
 19 20  1  0
 21 22  2  0
M  END
$$$$
