
     RDKit          2D

 96103  0  0  0  0  0  0  0  0999 V2000
   -0.3847    5.3525    0.0000 O   0  0  0  0  0  0  0  0  0  0  0  0
   -0.5022    6.4701    0.0000 O   0  0  0  0  0  0  0  0  0  0  0  0
   -1.0992    2.4650    0.0000 O   0  0  0  0  0  0  0  0  0  0  0  0
    1.7586    1.6400    0.0000 O   0  0  0  0  0  0  0  0  0  0  0  0
   -1.8015    9.1461    0.0000 O   0  0  0  0  0  0  0  0  0  0  0  0
    1.0442   -1.2475    0.0000 O   0  0  0  0  0  0  0  0  0  0  0  0
    1.0442   -6.1976    0.0000 O   0  0  0  0  0  0  0  0  0  0  0  0
    3.8849   -7.6265    0.0000 O   0  0  0  0  0  0  0  0  0  0  0  0
    0.3296   -5.7851    0.0000 O   0  0  0  0  0  0  0  0  0  0  0  0
    0.3296   -4.9601    0.0000 O   0  0  0  0  0  0  0  0  0  0  0  0
    1.0442   -2.0725    0.0000 O   0  0  0  0  0  0  0  0  0  0  0  0
    1.0442   -4.5476    0.0000 O   0  0  0  0  0  0  0  0  0  0  0  0
   -3.9571   -2.4850    0.0000 O   0  0  0  0  0  0  0  0  0  0  0  0
   -1.8137    5.3525    0.0000 N   0  0  0  0  0  0  0  0  0  0  0  0
   -0.3847    3.7025    0.0000 N   0  0  0  0  0  0  0  0  0  0  0  0
   -1.4583    7.5321    0.0000 N   0  0  0  0  0  0  0  0  0  0  0  0
    0.3296    1.6400    0.0000 N   0  0  0  0  0  0  0  0  0  0  0  0
   -3.9571    4.1150    0.0000 N   0  0  0  0  0  0  0  0  0  0  0  0
    0.3296   -0.0100    0.0000 N   0  0  0  0  0  0  0  0  0  0  0  0
   -0.4036    9.4431    0.0000 N   0  0  0  0  0  0  0  0  0  0  0  0
    2.5123   -7.0996    0.0000 N   0  0  0  0  0  0  0  0  0  0  0  0
   -0.3847   -2.0725    0.0000 N   0  0  0  0  0  0  0  0  0  0  0  0
    0.3296   -7.4351    0.0000 N   0  0  0  0  0  0  0  0  0  0  0  0
   -1.0992   -5.7851    0.0000 N   0  0  0  0  0  0  0  0  0  0  0  0
   -0.3847   -3.7226    0.0000 N   0  0  0  0  0  0  0  0  0  0  0  0
   -5.3862    4.1150    0.0000 N   0  0  0  0  0  0  0  0  0  0  0  0
   -4.6716    2.8775    0.0000 N   0  0  0  0  0  0  0  0  0  0  0  0
   -3.8275   -5.2339    0.0000 N   0  0  0  0  0  0  0  0  0  0  0  0
   -1.7666   -8.7451    0.0000 N   0  0  0  0  0  0  0  0  0  0  0  0
   -0.6867   -9.5298    0.0000 N   0  0  0  0  0  0  0  0  0  0  0  0
   -1.9000    6.1730    0.0000 C   0  0  0  0  0  0  0  0  0  0  0  0
   -2.7069    6.3445    0.0000 C   0  0  0  0  0  0  0  0  0  0  0  0
   -3.1194    5.6301    0.0000 C   0  0  0  0  0  0  0  0  0  0  0  0
   -2.5674    5.0170    0.0000 C   0  0  0  0  0  0  0  0  0  0  0  0
   -1.0992    4.9400    0.0000 C   0  0  0  0  0  0  0  0  0  0  0  0
   -1.0992    4.1150    0.0000 C   0  0  0  0  0  0  0  0  0  0  0  0
   -1.2868    6.7250    0.0000 C   0  0  0  0  0  0  0  0  0  0  0  0
   -1.8137    3.7025    0.0000 C   0  0  0  0  0  0  0  0  0  0  0  0
   -2.5282    4.1150    0.0000 C   0  0  0  0  0  0  0  0  0  0  0  0
    0.3296    2.4650    0.0000 C   0  0  0  0  0  0  0  0  0  0  0  0
   -0.3847    2.8775    0.0000 C   0  0  0  0  0  0  0  0  0  0  0  0
    1.0442    2.8775    0.0000 C   0  0  0  0  0  0  0  0  0  0  0  0
    1.4567    3.5920    0.0000 C   0  0  0  0  0  0  0  0  0  0  0  0
   -3.2427    3.7025    0.0000 C   0  0  0  0  0  0  0  0  0  0  0  0
   -0.8453    8.0841    0.0000 C   0  0  0  0  0  0  0  0  0  0  0  0
    2.2817    3.5920    0.0000 C   0  0  0  0  0  0  0  0  0  0  0  0
    1.0442    4.3064    0.0000 C   0  0  0  0  0  0  0  0  0  0  0  0
    1.0442    1.2275    0.0000 C   0  0  0  0  0  0  0  0  0  0  0  0
    1.0442    0.4024    0.0000 C   0  0  0  0  0  0  0  0  0  0  0  0
   -1.0168    8.8911    0.0000 C   0  0  0  0  0  0  0  0  0  0  0  0
    1.7586   -0.0100    0.0000 C   0  0  0  0  0  0  0  0  0  0  0  0
    2.4731    0.4024    0.0000 C   0  0  0  0  0  0  0  0  0  0  0  0
   -0.3847   -1.2475    0.0000 C   0  0  0  0  0  0  0  0  0  0  0  0
    0.3296   -0.8350    0.0000 C   0  0  0  0  0  0  0  0  0  0  0  0
   -4.6716    3.7025    0.0000 C   0  0  0  0  0  0  0  0  0  0  0  0
    1.7586   -7.4351    0.0000 C   0  0  0  0  0  0  0  0  0  0  0  0
    1.8449   -8.2556    0.0000 C   0  0  0  0  0  0  0  0  0  0  0  0
   -1.0992   -4.9601    0.0000 C   0  0  0  0  0  0  0  0  0  0  0  0
   -0.3847   -7.0226    0.0000 C   0  0  0  0  0  0  0  0  0  0  0  0
   -1.0992   -0.8350    0.0000 C   0  0  0  0  0  0  0  0  0  0  0  0
    2.6519   -8.4271    0.0000 C   0  0  0  0  0  0  0  0  0  0  0  0
    3.1876   -0.0100    0.0000 C   0  0  0  0  0  0  0  0  0  0  0  0
   -1.8137   -4.5476    0.0000 C   0  0  0  0  0  0  0  0  0  0  0  0
    1.0442   -7.0226    0.0000 C   0  0  0  0  0  0  0  0  0  0  0  0
    2.4731    1.2275    0.0000 C   0  0  0  0  0  0  0  0  0  0  0  0
    3.0644   -7.7127    0.0000 C   0  0  0  0  0  0  0  0  0  0  0  0
    0.3296   -3.3100    0.0000 C   0  0  0  0  0  0  0  0  0  0  0  0
   -1.0992   -7.4351    0.0000 C   0  0  0  0  0  0  0  0  0  0  0  0
   -0.3847   -6.1976    0.0000 C   0  0  0  0  0  0  0  0  0  0  0  0
   -2.5282   -4.9601    0.0000 C   0  0  0  0  0  0  0  0  0  0  0  0
    3.9021    0.4024    0.0000 C   0  0  0  0  0  0  0  0  0  0  0  0
   -0.3847   -4.5476    0.0000 C   0  0  0  0  0  0  0  0  0  0  0  0
    0.3296   -2.4850    0.0000 C   0  0  0  0  0  0  0  0  0  0  0  0
   -1.8137   -1.2475    0.0000 C   0  0  0  0  0  0  0  0  0  0  0  0
    3.9021    1.2275    0.0000 C   0  0  0  0  0  0  0  0  0  0  0  0
    3.1876    1.6400    0.0000 C   0  0  0  0  0  0  0  0  0  0  0  0
   -2.6132   -5.7758    0.0000 C   0  0  0  0  0  0  0  0  0  0  0  0
   -1.0992   -8.2602    0.0000 C   0  0  0  0  0  0  0  0  0  0  0  0
    1.0442   -3.7226    0.0000 C   0  0  0  0  0  0  0  0  0  0  0  0
   -3.2772   -4.6259    0.0000 C   0  0  0  0  0  0  0  0  0  0  0  0
   -3.4205   -5.9459    0.0000 C   0  0  0  0  0  0  0  0  0  0  0  0
    4.6396   -0.0386    0.0000 C   0  0  0  0  0  0  0  0  0  0  0  0
    4.6396    1.6686    0.0000 C   0  0  0  0  0  0  0  0  0  0  0  0
   -1.8137   -2.0725    0.0000 C   0  0  0  0  0  0  0  0  0  0  0  0
   -2.5282   -0.8350    0.0000 C   0  0  0  0  0  0  0  0  0  0  0  0
   -2.0622   -6.3898    0.0000 C   0  0  0  0  0  0  0  0  0  0  0  0
   -3.6768   -6.7302    0.0000 C   0  0  0  0  0  0  0  0  0  0  0  0
    5.3872    0.3853    0.0000 C   0  0  0  0  0  0  0  0  0  0  0  0
   -0.4318   -8.7451    0.0000 C   0  0  0  0  0  0  0  0  0  0  0  0
    5.3872    1.2446    0.0000 C   0  0  0  0  0  0  0  0  0  0  0  0
   -2.3185   -7.1740    0.0000 C   0  0  0  0  0  0  0  0  0  0  0  0
   -2.5282   -2.4850    0.0000 C   0  0  0  0  0  0  0  0  0  0  0  0
   -3.2427   -1.2475    0.0000 C   0  0  0  0  0  0  0  0  0  0  0  0
   -3.1258   -7.3442    0.0000 C   0  0  0  0  0  0  0  0  0  0  0  0
   -3.2427   -2.0725    0.0000 C   0  0  0  0  0  0  0  0  0  0  0  0
   -1.5117   -9.5298    0.0000 C   0  0  0  0  0  0  0  0  0  0  0  0
  1 35  2  0
  2 37  2  0
  3 41  2  0
  4 48  2  0
  5 50  2  0
  6 54  2  0
  7 64  2  0
  8 66  2  0
  9 69  2  0
 10 72  2  0
 11 73  2  0
 12 79  1  0
 13 95  1  0
 14 31  1  0
 14 34  1  0
 14 35  1  0
 36 15  1  0
 15 41  1  0
 16 37  1  0
 16 45  1  0
 40 17  1  0
 17 48  1  0
 18 44  1  0
 18 55  2  0
 49 19  1  0
 19 54  1  0
 20 50  1  0
 21 56  1  0
 21 66  1  0
 53 22  1  0
 22 73  1  0
 59 23  1  0
 23 64  1  0
 58 24  1  0
 24 69  1  0
 67 25  1  0
 25 72  1  0
 26 55  1  0
 27 55  1  0
 28 80  1  0
 28 81  1  0
 29 78  1  0
 29 96  1  0
 30 89  1  0
 30 96  2  0
 31 32  1  0
 31 37  1  1
 32 33  1  0
 33 34  1  0
 35 36  1  0
 36 38  1  1
 38 39  1  0
 39 44  1  0
 40 41  1  0
 40 42  1  6
 42 43  1  0
 43 46  1  0
 43 47  1  0
 45 50  1  0
 48 49  1  0
 49 51  1  1
 51 52  1  0
 52 62  2  0
 52 65  1  0
 53 54  1  0
 53 60  1  1
 56 57  1  0
 56 64  1  1
 57 61  1  0
 58 63  1  1
 58 72  1  0
 59 68  1  1
 59 69  1  0
 60 74  1  0
 61 66  1  0
 62 71  1  0
 63 70  1  0
 65 76  2  0
 67 73  1  0
 67 79  1  6
 68 78  1  0
 70 77  1  0
 70 80  2  0
 71 75  2  0
 71 82  1  0
 74 84  2  0
 74 85  1  0
 75 76  1  0
 75 83  1  0
 77 81  2  0
 77 86  1  0
 78 89  2  0
 81 87  1  0
 82 88  2  0
 83 90  2  0
 84 92  1  0
 85 93  2  0
 86 91  2  0
 87 94  2  0
 88 90  1  0
 91 94  1  0
 92 95  2  0
 93 95  1  0
M  END
$$$$
