357
     RDKit          2D

 17 18  0  0  1  0  0  0  0  0999 V2000
    1.6500   -0.4129    0.0000 O   0  0  0  0  0  0  0  0  0  0  0  0
    3.0791   -2.8880    0.0000 O   0  0  0  0  0  0  0  0  0  0  0  0
    2.3645   -1.6504    0.0000 N   0  0  0  0  0  0  0  0  0  0  0  0
    4.7291    2.4450    0.0000 N   0  0  0  0  0  0  0  0  0  0  0  0
    3.0791   -0.4129    0.0000 C   0  0  0  0  0  0  0  0  0  0  0  0
    3.7935   -0.8254    0.0000 C   0  0  0  0  0  0  0  0  0  0  0  0
    2.6665    0.3015    0.0000 C   0  0  0  0  0  0  0  0  0  0  0  0
    3.4916    0.3015    0.0000 C   0  0  0  0  0  0  0  0  0  0  0  0
    3.7935   -1.6504    0.0000 C   0  0  0  0  0  0  0  0  0  0  0  0
    2.3645   -0.8254    0.0000 C   0  0  0  0  0  0  0  0  0  0  0  0
    3.0791   -2.0630    0.0000 C   0  0  0  0  0  0  0  0  0  0  0  0
    1.8415    0.3015    0.0000 C   0  0  0  0  0  0  0  0  0  0  0  0
    3.0791    1.0160    0.0000 C   0  0  0  0  0  0  0  0  0  0  0  0
    4.3166    0.3015    0.0000 C   0  0  0  0  0  0  0  0  0  0  0  0
    3.4916    1.7306    0.0000 C   0  0  0  0  0  0  0  0  0  0  0  0
    4.7291    1.0160    0.0000 C   0  0  0  0  0  0  0  0  0  0  0  0
    4.3166    1.7306    0.0000 C   0  0  0  0  0  0  0  0  0  0  0  0
  1 10  2  0
  2 11  2  0
  3 10  1  0
  3 11  1  0
  4 17  1  0
  5  6  1  0
  5  7  1  0
  5  8  1  0
  5 10  1  0
  6  9  1  0
  7 12  1  0
  8 13  2  0
  8 14  1  0
  9 11  1  0
 13 15  1  0
 14 16  2  0
 15 17  2  0
 16 17  1  0
M  END
$$$$
