40839
     RDKit          2D

 55 63  0  0  1  0  0  0  0  0999 V2000
    6.6644   -2.6737    0.0000 O   0  0  0  0  0  0  0  0  0  0  0  0
    5.6186   -4.2863    0.0000 O   0  0  0  0  0  0  0  0  0  0  0  0
    6.3213   -4.2877    0.0000 O   0  0  0  0  0  0  0  0  0  0  0  0
    6.7488    1.0310    0.0000 O   0  0  0  0  0  0  0  0  0  0  0  0
    5.3864   -0.0523    0.0000 O   0  0  0  0  0  0  0  0  0  0  0  0
    4.3264   -0.0152    0.0000 O   0  0  0  0  0  0  0  0  0  0  0  0
    7.5845    4.2875    0.0000 O   0  0  0  0  0  0  0  0  0  0  0  0
    3.6168   -2.4477    0.0000 N   0  0  0  0  0  0  0  0  0  0  0  0
    6.1574   -1.6221    0.0000 N   0  0  0  0  0  0  0  0  0  0  0  0
    7.2774   -3.2257    0.0000 N   0  0  0  0  0  0  0  0  0  0  0  0
    5.6815    3.6865    0.0000 N   0  0  0  0  0  0  0  0  0  0  0  0
    3.8513    1.0835    0.0000 N   0  0  0  0  0  0  0  0  0  0  0  0
    4.8871   -2.0348    0.0000 C   0  0  0  0  0  0  0  0  0  0  0  0
    4.3710   -2.6079    0.0000 C   0  0  0  0  0  0  0  0  0  0  0  0
    5.6414   -2.1953    0.0000 C   0  0  0  0  0  0  0  0  0  0  0  0
    4.6094   -3.3413    0.0000 C   0  0  0  0  0  0  0  0  0  0  0  0
    5.8797   -2.9286    0.0000 C   0  0  0  0  0  0  0  0  0  0  0  0
    4.5693   -1.1805    0.0000 C   0  0  0  0  0  0  0  0  0  0  0  0
    5.3637   -3.5017    0.0000 C   0  0  0  0  0  0  0  0  0  0  0  0
    5.1648   -0.7284    0.0000 C   0  0  0  0  0  0  0  0  0  0  0  0
    3.3784   -1.7142    0.0000 C   0  0  0  0  0  0  0  0  0  0  0  0
    4.8643   -4.1261    0.0000 C   0  0  0  0  0  0  0  0  0  0  0  0
    5.9191   -0.8887    0.0000 C   0  0  0  0  0  0  0  0  0  0  0  0
    4.0933   -3.9144    0.0000 C   0  0  0  0  0  0  0  0  0  0  0  0
    3.1007   -3.0206    0.0000 C   0  0  0  0  0  0  0  0  0  0  0  0
    3.3391   -3.7541    0.0000 C   0  0  0  0  0  0  0  0  0  0  0  0
    6.4928   -3.4806    0.0000 C   0  0  0  0  0  0  0  0  0  0  0  0
    4.9265    0.0051    0.0000 C   0  0  0  0  0  0  0  0  0  0  0  0
    6.9420   -1.3672    0.0000 C   0  0  0  0  0  0  0  0  0  0  0  0
    6.4351   -0.3155    0.0000 C   0  0  0  0  0  0  0  0  0  0  0  0
    4.3123   -4.7391    0.0000 C   0  0  0  0  0  0  0  0  0  0  0  0
    5.4425    0.5782    0.0000 C   0  0  0  0  0  0  0  0  0  0  0  0
    6.1968    0.4178    0.0000 C   0  0  0  0  0  0  0  0  0  0  0  0
    5.1876    1.3628    0.0000 C   0  0  0  0  0  0  0  0  0  0  0  0
    5.9722    1.6178    0.0000 C   0  0  0  0  0  0  0  0  0  0  0  0
    4.4226    1.6719    0.0000 C   0  0  0  0  0  0  0  0  0  0  0  0
    6.4094    2.3174    0.0000 C   0  0  0  0  0  0  0  0  0  0  0  0
    4.8785    0.5979    0.0000 C   0  0  0  0  0  0  0  0  0  0  0  0
    7.1315    2.7475    0.0000 C   0  0  0  0  0  0  0  0  0  0  0  0
    6.2946    3.1345    0.0000 C   0  0  0  0  0  0  0  0  0  0  0  0
    4.0352    2.4003    0.0000 C   0  0  0  0  0  0  0  0  0  0  0  0
    7.1473    3.5878    0.0000 C   0  0  0  0  0  0  0  0  0  0  0  0
    6.4418    4.0447    0.0000 C   0  0  0  0  0  0  0  0  0  0  0  0
    4.2068    3.2073    0.0000 C   0  0  0  0  0  0  0  0  0  0  0  0
    4.8569    3.7153    0.0000 C   0  0  0  0  0  0  0  0  0  0  0  0
    3.2279    2.2558    0.0000 C   0  0  0  0  0  0  0  0  0  0  0  0
    7.5559    0.8594    0.0000 C   0  0  0  0  0  0  0  0  0  0  0  0
    3.1145    1.4435    0.0000 C   0  0  0  0  0  0  0  0  0  0  0  0
    7.9718    3.5590    0.0000 C   0  0  0  0  0  0  0  0  0  0  0  0
    2.5625    2.7915    0.0000 C   0  0  0  0  0  0  0  0  0  0  0  0
    2.3278    1.1107    0.0000 C   0  0  0  0  0  0  0  0  0  0  0  0
    8.4090    4.2587    0.0000 C   0  0  0  0  0  0  0  0  0  0  0  0
    6.3260    0.0798    0.0000 C   0  0  0  0  0  0  0  0  0  0  0  0
    1.7682    2.4769    0.0000 C   0  0  0  0  0  0  0  0  0  0  0  0
    1.6501    1.6308    0.0000 C   0  0  0  0  0  0  0  0  0  0  0  0
 17  1  1  6
 19  2  1  6
  3 27  2  0
  4 33  1  0
  4 47  1  0
  5 38  1  0
  5 53  1  0
  6 38  2  0
 42  7  1  1
 14  8  1  6
  8 21  1  0
  8 25  1  0
 15  9  1  1
  9 23  1  0
  9 29  1  0
 10 27  1  0
 11 40  1  0
 11 43  1  0
 11 45  1  0
 12 36  1  0
 12 48  1  0
 13 14  1  0
 13 15  1  0
 13 18  1  6
 13 20  1  0
 14 16  1  0
 15 17  1  0
 16 19  1  0
 16 22  1  1
 16 24  1  0
 17 19  1  0
 17 27  1  0
 18 21  1  0
 20 23  2  0
 20 28  1  0
 22 31  1  0
 23 30  1  0
 24 26  2  0
 25 26  1  0
 28 32  2  0
 30 33  2  0
 32 33  1  0
 32 34  1  0
 34 35  1  0
 34 36  1  0
 34 38  1  1
 37 35  1  6
 36 41  2  0
 37 39  1  0
 37 40  1  0
 39 42  1  0
 41 44  1  0
 41 46  1  0
 42 43  1  0
 42 49  1  0
 44 45  1  0
 46 48  2  0
 46 50  1  0
 48 51  1  0
 49 52  1  0
 50 54  2  0
 51 55  2  0
 54 55  1  0
M  END
$$$$
