204
     RDKit          2D

 29 30  0  0  1  0  0  0  0  0999 V2000
    5.9370    5.1564    0.0000 S   0  0  0  0  0  0  0  0  0  0  0  0
    2.3645   -5.1564    0.0000 S   0  0  0  0  0  0  0  0  0  0  0  0
    3.0791   -1.4438    0.0000 O   0  0  0  0  0  0  0  0  0  0  0  0
    6.3495    4.4419    0.0000 O   0  0  0  0  0  0  0  0  0  0  0  0
    5.5245    5.8708    0.0000 O   0  0  0  0  0  0  0  0  0  0  0  0
    1.9520   -4.4419    0.0000 O   0  0  0  0  0  0  0  0  0  0  0  0
    2.7770   -5.8708    0.0000 O   0  0  0  0  0  0  0  0  0  0  0  0
    4.5080    0.2063    0.0000 N   0  0  0  0  0  0  0  0  0  0  0  0
    5.2224    4.7439    0.0000 N   0  0  0  0  0  0  0  0  0  0  0  0
    3.0791   -4.7439    0.0000 N   0  0  0  0  0  0  0  0  0  0  0  0
    4.5080    1.0313    0.0000 C   0  0  0  0  0  0  0  0  0  0  0  0
    5.2224    1.4438    0.0000 C   0  0  0  0  0  0  0  0  0  0  0  0
    3.7935   -0.2063    0.0000 C   0  0  0  0  0  0  0  0  0  0  0  0
    5.2224    2.2688    0.0000 C   0  0  0  0  0  0  0  0  0  0  0  0
    3.7935   -1.0313    0.0000 C   0  0  0  0  0  0  0  0  0  0  0  0
    5.2224   -0.2063    0.0000 C   0  0  0  0  0  0  0  0  0  0  0  0
    4.5080    2.6813    0.0000 C   0  0  0  0  0  0  0  0  0  0  0  0
    5.9370    2.6813    0.0000 C   0  0  0  0  0  0  0  0  0  0  0  0
    5.2224    3.9188    0.0000 C   0  0  0  0  0  0  0  0  0  0  0  0
    4.5080    3.5063    0.0000 C   0  0  0  0  0  0  0  0  0  0  0  0
    5.9370    3.5063    0.0000 C   0  0  0  0  0  0  0  0  0  0  0  0
    3.0791   -2.2688    0.0000 C   0  0  0  0  0  0  0  0  0  0  0  0
    3.0791   -3.9188    0.0000 C   0  0  0  0  0  0  0  0  0  0  0  0
    2.3645   -2.6813    0.0000 C   0  0  0  0  0  0  0  0  0  0  0  0
    3.7935   -2.6813    0.0000 C   0  0  0  0  0  0  0  0  0  0  0  0
    2.3645   -3.5063    0.0000 C   0  0  0  0  0  0  0  0  0  0  0  0
    3.7935   -3.5063    0.0000 C   0  0  0  0  0  0  0  0  0  0  0  0
    6.6515    5.5689    0.0000 C   0  0  0  0  0  0  0  0  0  0  0  0
    1.6500   -5.5689    0.0000 C   0  0  0  0  0  0  0  0  0  0  0  0
  1  4  2  0
  1  5  2  0
  1  9  1  0
  1 28  1  0
  2  6  2  0
  2  7  2  0
  2 10  1  0
  2 29  1  0
  3 15  1  0
  3 22  1  0
  8 11  1  0
  8 13  1  0
  8 16  1  0
  9 19  1  0
 10 23  1  0
 11 12  1  0
 12 14  1  0
 13 15  1  0
 14 17  2  0
 14 18  1  0
 17 20  1  0
 18 21  2  0
 19 20  2  0
 19 21  1  0
 22 24  2  0
 22 25  1  0
 23 26  2  0
 23 27  1  0
 24 26  1  0
 25 27  2  0
M  END
$$$$
