695
     RDKit          2D

 21 22  0  0  0  0  0  0  0  0999 V2000
    1.6500    1.5381    0.0000 Cl  0  0  0  0  0  0  0  0  0  0  0  0
    3.0790    2.3631    0.0000 S   0  0  0  0  0  0  0  0  0  0  0  0
    3.0319   -2.6593    0.0000 O   0  0  0  0  0  0  0  0  0  0  0  0
    2.2540    2.3631    0.0000 O   0  0  0  0  0  0  0  0  0  0  0  0
    3.9040    2.3631    0.0000 O   0  0  0  0  0  0  0  0  0  0  0  0
    5.2224    0.3006    0.0000 O   0  0  0  0  0  0  0  0  0  0  0  0
    4.5079   -0.9369    0.0000 O   0  0  0  0  0  0  0  0  0  0  0  0
    3.0790   -0.9369    0.0000 N   0  0  0  0  0  0  0  0  0  0  0  0
    3.0790    3.1881    0.0000 N   0  0  0  0  0  0  0  0  0  0  0  0
    3.0790   -0.1119    0.0000 C   0  0  0  0  0  0  0  0  0  0  0  0
    3.0790    1.5381    0.0000 C   0  0  0  0  0  0  0  0  0  0  0  0
    3.7935    0.3006    0.0000 C   0  0  0  0  0  0  0  0  0  0  0  0
    3.7935    1.1256    0.0000 C   0  0  0  0  0  0  0  0  0  0  0  0
    2.3645   -1.3494    0.0000 C   0  0  0  0  0  0  0  0  0  0  0  0
    2.3645    0.3006    0.0000 C   0  0  0  0  0  0  0  0  0  0  0  0
    2.3645    1.1256    0.0000 C   0  0  0  0  0  0  0  0  0  0  0  0
    2.3645   -2.1744    0.0000 C   0  0  0  0  0  0  0  0  0  0  0  0
    4.5079   -0.1119    0.0000 C   0  0  0  0  0  0  0  0  0  0  0  0
    1.6970   -2.6593    0.0000 C   0  0  0  0  0  0  0  0  0  0  0  0
    1.9520   -3.4439    0.0000 C   0  0  0  0  0  0  0  0  0  0  0  0
    2.7770   -3.4439    0.0000 C   0  0  0  0  0  0  0  0  0  0  0  0
  1 16  1  0
  2  4  2  0
  2  5  2  0
  2  9  1  0
  2 11  1  0
  3 17  1  0
  3 21  1  0
  6 18  1  0
  7 18  2  0
  8 10  1  0
  8 14  1  0
 10 12  2  0
 10 15  1  0
 11 13  2  0
 11 16  1  0
 12 13  1  0
 12 18  1  0
 14 17  1  0
 15 16  2  0
 17 19  2  0
 19 20  1  0
 20 21  2  0
M  END
$$$$
