632
     RDKit          2D

 23 22  0  0  0  0  0  0  0  0999 V2000
    2.0928   -0.2063    0.0000 O   0  0  0  0  0  0  0  0  0  0  0  0
    9.9515    0.2063    0.0000 C   0  0  0  0  0  0  0  0  0  0  0  0
   10.6658   -0.2063    0.0000 C   0  0  0  0  0  0  0  0  0  0  0  0
    9.2371   -0.2063    0.0000 C   0  0  0  0  0  0  0  0  0  0  0  0
   11.3804    0.2063    0.0000 C   0  0  0  0  0  0  0  0  0  0  0  0
    8.5226    0.2063    0.0000 C   0  0  0  0  0  0  0  0  0  0  0  0
   12.0947   -0.2063    0.0000 C   0  0  0  0  0  0  0  0  0  0  0  0
    7.8082   -0.2063    0.0000 C   0  0  0  0  0  0  0  0  0  0  0  0
   12.8091    0.2063    0.0000 C   0  0  0  0  0  0  0  0  0  0  0  0
    7.0938    0.2063    0.0000 C   0  0  0  0  0  0  0  0  0  0  0  0
   13.5236   -0.2063    0.0000 C   0  0  0  0  0  0  0  0  0  0  0  0
    6.3793   -0.2063    0.0000 C   0  0  0  0  0  0  0  0  0  0  0  0
   14.2380    0.2063    0.0000 C   0  0  0  0  0  0  0  0  0  0  0  0
    5.6650    0.2063    0.0000 C   0  0  0  0  0  0  0  0  0  0  0  0
   14.9524   -0.2063    0.0000 C   0  0  0  0  0  0  0  0  0  0  0  0
    4.9504   -0.2063    0.0000 C   0  0  0  0  0  0  0  0  0  0  0  0
   15.6668    0.2063    0.0000 C   0  0  0  0  0  0  0  0  0  0  0  0
    4.2361    0.2063    0.0000 C   0  0  0  0  0  0  0  0  0  0  0  0
   16.3812   -0.2063    0.0000 C   0  0  0  0  0  0  0  0  0  0  0  0
    3.5217   -0.2063    0.0000 C   0  0  0  0  0  0  0  0  0  0  0  0
   17.0957    0.2063    0.0000 C   0  0  0  0  0  0  0  0  0  0  0  0
    2.8072    0.2063    0.0000 C   0  0  0  0  0  0  0  0  0  0  0  0
   17.8101   -0.2063    0.0000 C   0  0  0  0  0  0  0  0  0  0  0  0
  1 22  1  0
  2  3  1  0
  2  4  1  0
  3  5  1  0
  4  6  1  0
  5  7  1  0
  6  8  1  0
  7  9  1  0
  8 10  1  0
  9 11  1  0
 10 12  1  0
 11 13  1  0
 12 14  1  0
 13 15  1  0
 14 16  1  0
 15 17  1  0
 16 18  1  0
 17 19  1  0
 18 20  1  0
 19 21  1  0
 20 22  1  0
 21 23  1  0
M  END
$$$$
