651
     RDKit          2D

 18 19  0  0  1  0  0  0  0  0999 V2000
    6.1888    0.2998    0.0000 O   0  0  0  0  0  0  0  0  0  0  0  0
    3.0791    0.9456    0.0000 O   0  0  0  0  0  0  0  0  0  0  0  0
    6.7013    1.8682    0.0000 O   0  0  0  0  0  0  0  0  0  0  0  0
    1.6501   -1.5294    0.0000 O   0  0  0  0  0  0  0  0  0  0  0  0
    4.5742   -0.0404    0.0000 N   0  0  0  0  0  0  0  0  0  0  0  0
    3.0791   -1.5294    0.0000 N   0  0  0  0  0  0  0  0  0  0  0  0
    2.3645   -0.2919    0.0000 N   0  0  0  0  0  0  0  0  0  0  0  0
    4.5742   -1.3683    0.0000 N   0  0  0  0  0  0  0  0  0  0  0  0
    3.7935   -0.2919    0.0000 C   0  0  0  0  0  0  0  0  0  0  0  0
    4.8305    0.7438    0.0000 C   0  0  0  0  0  0  0  0  0  0  0  0
    3.7935   -1.1169    0.0000 C   0  0  0  0  0  0  0  0  0  0  0  0
    5.6378    0.9139    0.0000 C   0  0  0  0  0  0  0  0  0  0  0  0
    3.0791    0.1206    0.0000 C   0  0  0  0  0  0  0  0  0  0  0  0
    5.0557   -0.7044    0.0000 C   0  0  0  0  0  0  0  0  0  0  0  0
    2.3645   -1.1169    0.0000 C   0  0  0  0  0  0  0  0  0  0  0  0
    5.8941    1.6981    0.0000 C   0  0  0  0  0  0  0  0  0  0  0  0
    3.0791   -2.3545    0.0000 C   0  0  0  0  0  0  0  0  0  0  0  0
    1.6501    0.1206    0.0000 C   0  0  0  0  0  0  0  0  0  0  0  0
  1 12  1  0
  2 13  2  0
  3 16  1  0
  4 15  2  0
  5  9  1  0
  5 10  1  0
  5 14  1  0
  6 11  1  0
  6 15  1  0
  6 17  1  0
  7 13  1  0
  7 15  1  0
  7 18  1  0
  8 11  1  0
  8 14  2  0
  9 11  2  0
  9 13  1  0
 10 12  1  0
 12 16  1  0
M  END
$$$$
