528
     RDKit          2D

 45 48  0  0  1  0  0  0  0  0999 V2000
    8.0804   -0.9818    0.0000 O   0  0  0  0  0  0  0  0  0  0  0  0
    8.7949    0.2558    0.0000 O   0  0  0  0  0  0  0  0  0  0  0  0
   12.3674   -0.9818    0.0000 O   0  0  0  0  0  0  0  0  0  0  0  0
   11.6529    0.2558    0.0000 O   0  0  0  0  0  0  0  0  0  0  0  0
   11.6529    2.7308    0.0000 O   0  0  0  0  0  0  0  0  0  0  0  0
   12.3674    1.4933    0.0000 O   0  0  0  0  0  0  0  0  0  0  0  0
    5.9370   -0.5693    0.0000 N   0  0  0  0  0  0  0  0  0  0  0  0
   10.2239   -2.2193    0.0000 N   0  0  0  0  0  0  0  0  0  0  0  0
   11.6529    1.9058    0.0000 N   0  0  0  0  0  0  0  0  0  0  0  0
    7.3659   -0.5693    0.0000 C   0  0  0  0  0  0  0  0  0  0  0  0
    6.6515   -0.1568    0.0000 C   0  0  0  0  0  0  0  0  0  0  0  0
    5.2224   -0.1568    0.0000 C   0  0  0  0  0  0  0  0  0  0  0  0
    4.5080   -0.5693    0.0000 C   0  0  0  0  0  0  0  0  0  0  0  0
    3.7935   -0.1568    0.0000 C   0  0  0  0  0  0  0  0  0  0  0  0
   10.2239   -0.5693    0.0000 C   0  0  0  0  0  0  0  0  0  0  0  0
    7.7784    0.1452    0.0000 C   0  0  0  0  0  0  0  0  0  0  0  0
    6.9534   -1.2837    0.0000 C   0  0  0  0  0  0  0  0  0  0  0  0
    9.5094   -0.9818    0.0000 C   0  0  0  0  0  0  0  0  0  0  0  0
    5.9370   -1.3943    0.0000 C   0  0  0  0  0  0  0  0  0  0  0  0
    3.0791   -0.5693    0.0000 C   0  0  0  0  0  0  0  0  0  0  0  0
    3.7935    0.6683    0.0000 C   0  0  0  0  0  0  0  0  0  0  0  0
   10.9383   -0.9818    0.0000 C   0  0  0  0  0  0  0  0  0  0  0  0
    8.7949   -0.5693    0.0000 C   0  0  0  0  0  0  0  0  0  0  0  0
    9.5094   -1.8068    0.0000 C   0  0  0  0  0  0  0  0  0  0  0  0
   10.2239    0.2558    0.0000 C   0  0  0  0  0  0  0  0  0  0  0  0
   10.9383   -1.8068    0.0000 C   0  0  0  0  0  0  0  0  0  0  0  0
    3.0791   -1.3943    0.0000 C   0  0  0  0  0  0  0  0  0  0  0  0
    3.0791    1.0808    0.0000 C   0  0  0  0  0  0  0  0  0  0  0  0
    2.3645   -0.1568    0.0000 C   0  0  0  0  0  0  0  0  0  0  0  0
    4.5080    1.0808    0.0000 C   0  0  0  0  0  0  0  0  0  0  0  0
    8.7949   -2.2193    0.0000 C   0  0  0  0  0  0  0  0  0  0  0  0
   10.9383    0.6683    0.0000 C   0  0  0  0  0  0  0  0  0  0  0  0
    9.5094    0.6683    0.0000 C   0  0  0  0  0  0  0  0  0  0  0  0
   11.6529   -0.5693    0.0000 C   0  0  0  0  0  0  0  0  0  0  0  0
   11.6529   -2.2193    0.0000 C   0  0  0  0  0  0  0  0  0  0  0  0
   10.9383    1.4933    0.0000 C   0  0  0  0  0  0  0  0  0  0  0  0
    2.3645   -1.8068    0.0000 C   0  0  0  0  0  0  0  0  0  0  0  0
    3.0791    1.9058    0.0000 C   0  0  0  0  0  0  0  0  0  0  0  0
    1.6500   -0.5693    0.0000 C   0  0  0  0  0  0  0  0  0  0  0  0
    4.5080    1.9058    0.0000 C   0  0  0  0  0  0  0  0  0  0  0  0
    9.5094    1.4933    0.0000 C   0  0  0  0  0  0  0  0  0  0  0  0
    1.6500   -1.3943    0.0000 C   0  0  0  0  0  0  0  0  0  0  0  0
    3.7935    2.3183    0.0000 C   0  0  0  0  0  0  0  0  0  0  0  0
   10.2239    1.9058    0.0000 C   0  0  0  0  0  0  0  0  0  0  0  0
   13.0818   -0.5693    0.0000 C   0  0  0  0  0  0  0  0  0  0  0  0
  1 10  1  0
  1 23  1  0
  2 23  2  0
  3 34  1  0
  3 45  1  0
  4 34  2  0
  5  9  1  0
  6  9  2  0
  7 11  1  0
  7 12  1  0
  7 19  1  0
  8 24  1  0
  8 26  1  0
  9 36  1  0
 10 11  1  0
 10 16  1  0
 10 17  1  0
 12 13  1  0
 13 14  1  0
 14 20  1  0
 14 21  1  0
 15 18  1  0
 15 22  1  0
 15 25  1  0
 18 23  1  0
 18 24  2  0
 20 27  2  0
 20 29  1  0
 21 28  2  0
 21 30  1  0
 22 26  2  0
 22 34  1  0
 24 31  1  0
 25 32  2  0
 25 33  1  0
 26 35  1  0
 27 37  1  0
 28 38  1  0
 29 39  2  0
 30 40  2  0
 32 36  1  0
 33 41  2  0
 36 44  2  0
 37 42  2  0
 38 43  2  0
 39 42  1  0
 40 43  1  0
 41 44  1  0
M  CHG  2   5  -1   9   1
M  END
$$$$
