172
     RDKit          2D

  8  8  0  0  1  0  0  0  0  0999 V2000
    4.3828    0.4358    0.0000 O   0  0  0  0  0  0  0  0  0  0  0  0
    3.9413   -0.9233    0.0000 O   0  0  0  0  0  0  0  0  0  0  0  0
    2.3176   -0.3463    0.0000 N   0  0  0  0  0  0  0  0  0  0  0  0
    2.9850    0.1387    0.0000 C   0  0  0  0  0  0  0  0  0  0  0  0
    2.7301    0.9233    0.0000 C   0  0  0  0  0  0  0  0  0  0  0  0
    1.9050    0.9233    0.0000 C   0  0  0  0  0  0  0  0  0  0  0  0
    1.6501    0.1387    0.0000 C   0  0  0  0  0  0  0  0  0  0  0  0
    3.7697   -0.1163    0.0000 C   0  0  0  0  0  0  0  0  0  0  0  0
  1  8  1  0
  2  8  2  0
  3  4  1  0
  3  7  1  0
  4  5  1  0
  4  8  1  1
  5  6  1  0
  6  7  1  0
M  END
$$$$
