606
     RDKit          2D

 24 27  0  0  1  0  0  0  0  0999 V2000
    8.5685    0.7911    0.0000 Cl  0  0  0  0  0  0  0  0  0  0  0  0
    5.7726   -0.8120    0.0000 S   0  0  0  0  0  0  0  0  0  0  0  0
    8.5685   -0.8311    0.0000 S   0  0  0  0  0  0  0  0  0  0  0  0
    6.1686   -1.4979    0.0000 O   0  0  0  0  0  0  0  0  0  0  0  0
    5.3766   -1.4979    0.0000 O   0  0  0  0  0  0  0  0  0  0  0  0
    8.9672   -0.1468    0.0000 O   0  0  0  0  0  0  0  0  0  0  0  0
    8.1698   -1.5154    0.0000 O   0  0  0  0  0  0  0  0  0  0  0  0
    5.0867   -0.4160    0.0000 N   0  0  0  0  0  0  0  0  0  0  0  0
    5.7726    0.7719    0.0000 N   0  0  0  0  0  0  0  0  0  0  0  0
    9.2529   -1.2298    0.0000 N   0  0  0  0  0  0  0  0  0  0  0  0
    4.4009    0.7719    0.0000 C   0  0  0  0  0  0  0  0  0  0  0  0
    2.8708    0.3620    0.0000 C   0  0  0  0  0  0  0  0  0  0  0  0
    2.1849    0.7580    0.0000 C   0  0  0  0  0  0  0  0  0  0  0  0
    4.1959    1.5370    0.0000 C   0  0  0  0  0  0  0  0  0  0  0  0
    2.0473    1.7208    0.0000 C   0  0  0  0  0  0  0  0  0  0  0  0
    5.0867    0.3759    0.0000 C   0  0  0  0  0  0  0  0  0  0  0  0
    2.2698   -1.0889    0.0000 C   0  0  0  0  0  0  0  0  0  0  0  0
    1.5840   -0.6929    0.0000 C   0  0  0  0  0  0  0  0  0  0  0  0
    6.4585    0.3759    0.0000 C   0  0  0  0  0  0  0  0  0  0  0  0
    6.4585   -0.4160    0.0000 C   0  0  0  0  0  0  0  0  0  0  0  0
    7.1665    0.7995    0.0000 C   0  0  0  0  0  0  0  0  0  0  0  0
    7.1665   -0.8394    0.0000 C   0  0  0  0  0  0  0  0  0  0  0  0
    7.8842   -0.4325    0.0000 C   0  0  0  0  0  0  0  0  0  0  0  0
    7.8842    0.3925    0.0000 C   0  0  0  0  0  0  0  0  0  0  0  0
  1 24  1  0
  2  4  2  0
  2  5  2  0
  2  8  1  0
  2 20  1  0
  3  6  2  0
  3  7  2  0
  3 10  1  0
  3 23  1  0
  8 16  1  0
  9 16  1  0
  9 19  1  0
 11 12  1  0
 11 14  1  0
 11 16  1  0
 12 15  1  0
 12 17  1  0
 13 14  1  0
 13 15  1  0
 13 18  1  0
 17 18  2  0
 19 20  2  0
 19 21  1  0
 20 22  1  0
 21 24  2  0
 22 23  2  0
 23 24  1  0
M  END
$$$$
