724
     RDKit          2D

 18 20  0  0  0  0  0  0  0  0999 V2000
    3.2646    0.4156    0.0000 N   0  0  0  0  0  0  0  0  0  0  0  0
    3.2646   -0.9122    0.0000 N   0  0  0  0  0  0  0  0  0  0  0  0
    5.4742   -0.6608    0.0000 N   0  0  0  0  0  0  0  0  0  0  0  0
    4.7597   -1.8983    0.0000 N   0  0  0  0  0  0  0  0  0  0  0  0
    3.0082    1.1998    0.0000 C   0  0  0  0  0  0  0  0  0  0  0  0
    2.2010    1.3699    0.0000 C   0  0  0  0  0  0  0  0  0  0  0  0
    4.0452    0.1642    0.0000 C   0  0  0  0  0  0  0  0  0  0  0  0
    4.7597    0.5767    0.0000 C   0  0  0  0  0  0  0  0  0  0  0  0
    4.0452   -0.6608    0.0000 C   0  0  0  0  0  0  0  0  0  0  0  0
    2.7831   -0.2483    0.0000 C   0  0  0  0  0  0  0  0  0  0  0  0
    1.6500    0.7559    0.0000 C   0  0  0  0  0  0  0  0  0  0  0  0
    1.9447    2.1541    0.0000 C   0  0  0  0  0  0  0  0  0  0  0  0
    5.4742    0.1642    0.0000 C   0  0  0  0  0  0  0  0  0  0  0  0
    4.7597   -1.0733    0.0000 C   0  0  0  0  0  0  0  0  0  0  0  0
    4.7464    1.4359    0.0000 C   0  0  0  0  0  0  0  0  0  0  0  0
    6.2249    0.5823    0.0000 C   0  0  0  0  0  0  0  0  0  0  0  0
    5.4873    1.8714    0.0000 C   0  0  0  0  0  0  0  0  0  0  0  0
    6.2315    1.4416    0.0000 C   0  0  0  0  0  0  0  0  0  0  0  0
  1  5  1  0
  1  7  1  0
  1 10  1  0
  2  9  1  0
  2 10  2  0
  3 13  2  0
  3 14  1  0
  4 14  1  0
  5  6  1  0
  6 11  1  0
  6 12  1  0
  7  8  2  0
  7  9  1  0
  8 13  1  0
  8 15  1  0
  9 14  2  0
 13 16  1  0
 15 17  2  0
 16 18  2  0
 17 18  1  0
M  END
$$$$
