
     RDKit          2D

 21 23  0  0  0  0  0  0  0  0999 V2000
   -3.1527    0.6777    0.0000 C   0  0  0  0  0  0  0  0  0  0  0  0
   -3.8671    0.2652    0.0000 C   0  0  0  0  0  0  0  0  0  0  0  0
   -3.8671   -0.5598    0.0000 C   0  0  0  0  0  0  0  0  0  0  0  0
   -3.1527   -0.9723    0.0000 C   0  0  0  0  0  0  0  0  0  0  0  0
   -2.4382   -0.5598    0.0000 C   0  0  0  0  0  0  0  0  0  0  0  0
   -2.4382    0.2652    0.0000 C   0  0  0  0  0  0  0  0  0  0  0  0
   -1.7237    0.6777    0.0000 O   0  0  0  0  0  0  0  0  0  0  0  0
   -1.7237   -0.9723    0.0000 C   0  0  0  0  0  0  0  0  0  0  0  0
   -1.0093   -0.5598    0.0000 C   0  0  0  0  0  0  0  0  0  0  0  0
   -1.0093    0.2652    0.0000 C   0  0  0  0  0  0  0  0  0  0  0  0
   -0.2948   -0.9723    0.0000 C   0  0  0  0  0  0  0  0  0  0  0  0
    0.4197   -0.5598    0.0000 C   0  0  0  0  0  0  0  0  0  0  0  0
    1.1341    0.6777    0.0000 C   0  0  0  0  0  0  0  0  0  0  0  0
    0.4197    0.2652    0.0000 C   0  0  0  0  0  0  0  0  0  0  0  0
    1.1341   -0.9723    0.0000 C   0  0  0  0  0  0  0  0  0  0  0  0
    1.8486   -0.5598    0.0000 C   0  0  0  0  0  0  0  0  0  0  0  0
    1.8486    0.2652    0.0000 C   0  0  0  0  0  0  0  0  0  0  0  0
   -0.2948   -1.7973    0.0000 C   0  0  0  0  0  0  0  0  0  0  0  0
    0.4197   -2.2098    0.0000 C   0  0  0  0  0  0  0  0  0  0  0  0
   -1.7237   -1.7973    0.0000 O   0  0  0  0  0  0  0  0  0  0  0  0
   -0.2948    0.6777    0.0000 O   0  0  0  0  0  0  0  0  0  0  0  0
  1  2  2  0
  1  6  1  0
  2  3  1  0
  3  4  2  0
  4  5  1  0
  7  6  1  0
  6  5  2  0
  5  8  1  0
  7 10  1  0
  8  9  2  0
  9 10  1  0
  9 11  1  0
 11 12  1  0
 14 12  1  0
 12 15  2  0
 13 14  2  0
 13 17  1  0
 15 16  1  0
 16 17  2  0
 11 18  1  0
 18 19  1  0
  8 20  1  0
 10 21  2  0
M  END
$$$$
