
     RDKit          2D

 24 26  0  0  1  0  0  0  0  0999 V2000
   15.1257   -5.2681    0.0000 C   0  0  0  0  0  0  0  0  0  0  0  0
   15.1257   -6.0931    0.0000 N   0  0  0  0  0  0  0  0  0  0  0  0
   15.8401   -6.5056    0.0000 C   0  0  0  0  0  0  0  0  0  0  0  0
   16.5546   -6.0931    0.0000 C   0  0  0  0  0  0  0  0  0  0  0  0
   16.5546   -5.2681    0.0000 C   0  0  0  0  0  0  0  0  0  0  0  0
   15.8401   -4.8556    0.0000 S   0  0  0  0  0  0  0  0  0  0  0  0
   14.3007   -5.2681    0.0000 C   0  0  0  0  0  0  0  0  0  0  0  0
   14.3007   -6.0931    0.0000 C   0  0  0  0  0  0  0  0  0  0  0  0
   13.5861   -4.8556    0.0000 N   0  0  0  0  0  0  0  0  0  0  0  0
   12.8716   -5.2681    0.0000 C   0  0  0  0  0  0  0  0  0  0  0  0
   12.8716   -6.0931    0.0000 O   0  0  0  0  0  0  0  0  0  0  0  0
   13.5861   -6.5056    0.0000 O   0  0  0  0  0  0  0  0  0  0  0  0
   12.1570   -4.8556    0.0000 C   0  0  0  0  0  0  0  0  0  0  0  0
   17.2802   -6.5122    0.0000 Cl  0  0  0  0  0  0  0  0  0  0  0  0
   15.8401   -7.3305    0.0000 C   0  0  0  0  0  0  0  0  0  0  0  0
   15.1157   -7.7488    0.0000 O   0  0  0  0  0  0  0  0  0  0  0  0
   16.5447   -7.7373    0.0000 O   0  0  0  0  0  0  0  0  0  0  0  0
   11.4312   -5.2750    0.0000 C   0  0  0  0  0  0  0  0  0  0  0  0
   10.7176   -4.8630    0.0000 C   0  0  0  0  0  0  0  0  0  0  0  0
   10.0040   -5.2750    0.0000 C   0  0  0  0  0  0  0  0  0  0  0  0
   10.0040   -6.0990    0.0000 C   0  0  0  0  0  0  0  0  0  0  0  0
   10.7176   -6.5110    0.0000 C   0  0  0  0  0  0  0  0  0  0  0  0
   11.4312   -6.0990    0.0000 C   0  0  0  0  0  0  0  0  0  0  0  0
   12.1570   -4.0279    0.0000 N   0  0  0  0  0  0  0  0  0  0  0  0
  1  2  1  0
  2  3  1  0
  3  4  2  0
  4  5  1  0
  5  6  1  0
  1  6  1  1
  1  7  1  0
  7  8  1  0
  2  8  1  0
  7  9  1  1
  9 10  1  0
 10 11  2  0
  8 12  2  0
 10 13  1  0
  4 14  1  0
  3 15  1  0
 15 16  2  0
 15 17  1  0
 13 18  1  0
 18 19  2  0
 19 20  1  0
 20 21  2  0
 21 22  1  0
 22 23  2  0
 18 23  1  0
 13 24  1  1
M  END
$$$$
