714
     RDKit          2D

 20 23  0  0  1  0  0  0  0  0999 V2000
    3.4218    1.3849    0.0000 O   0  0  0  0  0  0  0  0  0  0  0  0
    2.0105    0.5846    0.0000 O   0  0  0  0  0  0  0  0  0  0  0  0
    6.1725   -1.0164    0.0000 N   0  0  0  0  0  0  0  0  0  0  0  0
    5.4927   -0.6228    0.0000 C   0  0  0  0  0  0  0  0  0  0  0  0
    5.4927    0.1694    0.0000 C   0  0  0  0  0  0  0  0  0  0  0  0
    4.8067   -1.0188    0.0000 C   0  0  0  0  0  0  0  0  0  0  0  0
    6.2135    0.5708    0.0000 C   0  0  0  0  0  0  0  0  0  0  0  0
    6.8581   -0.6328    0.0000 C   0  0  0  0  0  0  0  0  0  0  0  0
    6.8784    0.1524    0.0000 C   0  0  0  0  0  0  0  0  0  0  0  0
    4.8067    0.5654    0.0000 C   0  0  0  0  0  0  0  0  0  0  0  0
    4.1207   -0.6228    0.0000 C   0  0  0  0  0  0  0  0  0  0  0  0
    4.1207    0.1694    0.0000 C   0  0  0  0  0  0  0  0  0  0  0  0
    6.1667   -1.8084    0.0000 C   0  0  0  0  0  0  0  0  0  0  0  0
    6.2199    1.3959    0.0000 C   0  0  0  0  0  0  0  0  0  0  0  0
    4.7940    1.3904    0.0000 C   0  0  0  0  0  0  0  0  0  0  0  0
    3.4126   -1.0462    0.0000 C   0  0  0  0  0  0  0  0  0  0  0  0
    3.4126    0.5929    0.0000 C   0  0  0  0  0  0  0  0  0  0  0  0
    5.5053    1.8084    0.0000 C   0  0  0  0  0  0  0  0  0  0  0  0
    2.6949    0.1858    0.0000 C   0  0  0  0  0  0  0  0  0  0  0  0
    2.6949   -0.6392    0.0000 C   0  0  0  0  0  0  0  0  0  0  0  0
  1 17  1  0
  2 19  1  0
  3  4  1  0
  3  8  1  0
  3 13  1  0
  4  5  1  0
  4  6  1  6
  5  7  2  0
  5 10  1  0
  6 11  1  0
  7  9  1  0
  7 14  1  0
  8  9  1  0
 10 12  1  0
 10 15  2  0
 11 12  2  0
 11 16  1  0
 12 17  1  0
 14 18  2  0
 15 18  1  0
 16 20  2  0
 17 19  2  0
 19 20  1  0
M  END
$$$$
