135
     RDKit          2D

 13 13  0  0  1  0  0  0  0  0999 V2000
    3.7934    2.3471    0.0000 O   0  0  0  0  0  0  0  0  0  0  0  0
    2.3644   -2.6029    0.0000 O   0  0  0  0  0  0  0  0  0  0  0  0
    2.3644    2.3471    0.0000 O   0  0  0  0  0  0  0  0  0  0  0  0
    3.7934    0.6971    0.0000 N   0  0  0  0  0  0  0  0  0  0  0  0
    2.3644    0.6971    0.0000 C   0  0  0  0  0  0  0  0  0  0  0  0
    3.0790    1.1096    0.0000 C   0  0  0  0  0  0  0  0  0  0  0  0
    2.3644   -0.1279    0.0000 C   0  0  0  0  0  0  0  0  0  0  0  0
    3.0790   -0.5404    0.0000 C   0  0  0  0  0  0  0  0  0  0  0  0
    1.6500   -0.5404    0.0000 C   0  0  0  0  0  0  0  0  0  0  0  0
    3.0790    1.9346    0.0000 C   0  0  0  0  0  0  0  0  0  0  0  0
    3.0790   -1.3654    0.0000 C   0  0  0  0  0  0  0  0  0  0  0  0
    1.6500   -1.3654    0.0000 C   0  0  0  0  0  0  0  0  0  0  0  0
    2.3644   -1.7779    0.0000 C   0  0  0  0  0  0  0  0  0  0  0  0
  1 10  1  0
  2 13  1  0
  3 10  2  0
  6  4  1  1
  5  6  1  0
  5  7  1  0
  6 10  1  0
  7  8  2  0
  7  9  1  0
  8 11  1  0
  9 12  2  0
 11 13  2  0
 12 13  1  0
M  END
$$$$
