236
     RDKit          2D

 16 16  0  0  0  0  0  0  0  0999 V2000
    1.6500   -3.3000    0.0000 Br  0  0  0  0  0  0  0  0  0  0  0  0
    4.5079    3.3000    0.0000 Br  0  0  0  0  0  0  0  0  0  0  0  0
    3.7935   -2.0625    0.0000 O   0  0  0  0  0  0  0  0  0  0  0  0
    2.3645    2.0625    0.0000 O   0  0  0  0  0  0  0  0  0  0  0  0
    3.0790   -0.8250    0.0000 N   0  0  0  0  0  0  0  0  0  0  0  0
    3.0790    0.8250    0.0000 N   0  0  0  0  0  0  0  0  0  0  0  0
    3.7935   -0.4125    0.0000 C   0  0  0  0  0  0  0  0  0  0  0  0
    2.3645   -0.4125    0.0000 C   0  0  0  0  0  0  0  0  0  0  0  0
    3.7935    0.4125    0.0000 C   0  0  0  0  0  0  0  0  0  0  0  0
    2.3645    0.4125    0.0000 C   0  0  0  0  0  0  0  0  0  0  0  0
    3.0790   -1.6500    0.0000 C   0  0  0  0  0  0  0  0  0  0  0  0
    3.0790    1.6500    0.0000 C   0  0  0  0  0  0  0  0  0  0  0  0
    2.3645   -2.0625    0.0000 C   0  0  0  0  0  0  0  0  0  0  0  0
    3.7935    2.0625    0.0000 C   0  0  0  0  0  0  0  0  0  0  0  0
    2.3645   -2.8875    0.0000 C   0  0  0  0  0  0  0  0  0  0  0  0
    3.7935    2.8875    0.0000 C   0  0  0  0  0  0  0  0  0  0  0  0
  1 15  1  0
  2 16  1  0
  3 11  2  0
  4 12  2  0
  5  7  1  0
  5  8  1  0
  5 11  1  0
  6  9  1  0
  6 10  1  0
  6 12  1  0
  7  9  1  0
  8 10  1  0
 11 13  1  0
 12 14  1  0
 13 15  1  0
 14 16  1  0
M  END
$$$$
