
     RDKit          2D

 10 10  0  0  0  0  0  0  0  0999 V2000
   -0.7500    1.1375    0.0000 C   0  0  0  0  0  0  0  0  0  0  0  0
   -1.4645    0.7250    0.0000 C   0  0  0  0  0  0  0  0  0  0  0  0
   -1.4645   -0.1000    0.0000 C   0  0  0  0  0  0  0  0  0  0  0  0
   -0.0355    0.7250    0.0000 C   0  0  0  0  0  0  0  0  0  0  0  0
   -0.7500   -0.5125    0.0000 N   0  0  0  0  0  0  0  0  0  0  0  0
   -0.7500   -1.3375    0.0000 C   0  0  0  0  0  0  0  0  0  0  0  0
   -0.0355   -0.1000    0.0000 C   0  0  0  0  0  0  0  0  0  0  0  0
    0.6789   -0.5125    0.0000 C   0  0  0  0  0  0  0  0  0  0  0  0
    1.3934   -0.1000    0.0000 N   0  0  0  0  0  0  0  0  0  0  0  0
    2.1079   -0.5125    0.0000 O   0  0  0  0  0  0  0  0  0  0  0  0
  1  2  2  0
  1  4  1  0
  2  3  1  0
  3  5  2  0
  5  7  1  0
  7  4  2  0
  5  6  1  0
  7  8  1  0
  8  9  2  0
  9 10  1  0
M  CHG  1   5   1
M  END
$$$$
