224
     RDKit          2D

 45 49  0  0  1  0  0  0  0  0999 V2000
    6.2816   -0.1701    0.0000 O   0  0  0  0  0  0  0  0  0  0  0  0
    5.1662   -1.3445    0.0000 O   0  0  0  0  0  0  0  0  0  0  0  0
    8.4087    1.7386    0.0000 O   0  0  0  0  0  0  0  0  0  0  0  0
    5.4743   -0.3402    0.0000 O   0  0  0  0  0  0  0  0  0  0  0  0
    7.8961    0.1701    0.0000 N   0  0  0  0  0  0  0  0  0  0  0  0
    8.9981   -1.0580    0.0000 N   0  0  0  0  0  0  0  0  0  0  0  0
    4.1160    0.1036    0.0000 N   0  0  0  0  0  0  0  0  0  0  0  0
    9.7671    1.2946    0.0000 N   0  0  0  0  0  0  0  0  0  0  0  0
    9.5875   -3.8545    0.0000 N   0  0  0  0  0  0  0  0  0  0  0  0
    8.7034    0.3402    0.0000 C   0  0  0  0  0  0  0  0  0  0  0  0
    9.2544   -0.2738    0.0000 C   0  0  0  0  0  0  0  0  0  0  0  0
    7.6398   -0.6141    0.0000 C   0  0  0  0  0  0  0  0  0  0  0  0
    7.3452    0.7842    0.0000 C   0  0  0  0  0  0  0  0  0  0  0  0
    8.1908   -1.2281    0.0000 C   0  0  0  0  0  0  0  0  0  0  0  0
    6.5379    0.6141    0.0000 C   0  0  0  0  0  0  0  0  0  0  0  0
    5.9869    1.2281    0.0000 C   0  0  0  0  0  0  0  0  0  0  0  0
    5.1796    1.0580    0.0000 C   0  0  0  0  0  0  0  0  0  0  0  0
    3.8597   -0.6806    0.0000 C   0  0  0  0  0  0  0  0  0  0  0  0
    8.9598    1.1245    0.0000 C   0  0  0  0  0  0  0  0  0  0  0  0
    4.3412   -1.3445    0.0000 C   0  0  0  0  0  0  0  0  0  0  0  0
    9.5491   -1.6721    0.0000 C   0  0  0  0  0  0  0  0  0  0  0  0
    3.8597   -2.0084    0.0000 C   0  0  0  0  0  0  0  0  0  0  0  0
    3.0791   -0.9319    0.0000 C   0  0  0  0  0  0  0  0  0  0  0  0
    4.9233    0.2738    0.0000 C   0  0  0  0  0  0  0  0  0  0  0  0
    4.6286    1.6721    0.0000 C   0  0  0  0  0  0  0  0  0  0  0  0
    3.0791   -1.7570    0.0000 C   0  0  0  0  0  0  0  0  0  0  0  0
   10.3180    0.6806    0.0000 C   0  0  0  0  0  0  0  0  0  0  0  0
    9.2928   -2.4563    0.0000 C   0  0  0  0  0  0  0  0  0  0  0  0
    2.3645   -0.5194    0.0000 C   0  0  0  0  0  0  0  0  0  0  0  0
    4.8849    2.4563    0.0000 C   0  0  0  0  0  0  0  0  0  0  0  0
    2.3645   -2.1695    0.0000 C   0  0  0  0  0  0  0  0  0  0  0  0
    9.7039    0.1295    0.0000 C   0  0  0  0  0  0  0  0  0  0  0  0
   10.9321    1.2315    0.0000 C   0  0  0  0  0  0  0  0  0  0  0  0
   10.8690    0.0665    0.0000 C   0  0  0  0  0  0  0  0  0  0  0  0
    1.6501   -0.9319    0.0000 C   0  0  0  0  0  0  0  0  0  0  0  0
    1.6501   -1.7570    0.0000 C   0  0  0  0  0  0  0  0  0  0  0  0
    8.4855   -2.6264    0.0000 C   0  0  0  0  0  0  0  0  0  0  0  0
    9.8438   -3.0703    0.0000 C   0  0  0  0  0  0  0  0  0  0  0  0
    4.3339    3.0703    0.0000 C   0  0  0  0  0  0  0  0  0  0  0  0
    5.6922    2.6264    0.0000 C   0  0  0  0  0  0  0  0  0  0  0  0
    8.2292   -3.4106    0.0000 C   0  0  0  0  0  0  0  0  0  0  0  0
    4.5902    3.8545    0.0000 C   0  0  0  0  0  0  0  0  0  0  0  0
    5.9485    3.4106    0.0000 C   0  0  0  0  0  0  0  0  0  0  0  0
    5.3975    4.0246    0.0000 C   0  0  0  0  0  0  0  0  0  0  0  0
    8.7802   -4.0246    0.0000 C   0  0  0  0  0  0  0  0  0  0  0  0
 15  1  1  1
 20  2  1  6
  3 19  2  0
  4 24  2  0
  5 10  1  0
  5 12  1  0
  5 13  1  0
  6 11  1  0
  6 14  1  0
  6 21  1  0
 18  7  1  6
  7 24  1  0
  8 19  1  0
  8 27  1  0
  9 38  2  0
  9 45  1  0
 10 11  1  0
 10 19  1  6
 12 14  1  0
 13 15  1  0
 15 16  1  0
 17 16  1  6
 17 24  1  0
 17 25  1  0
 18 20  1  0
 18 23  1  0
 20 22  1  0
 21 28  1  0
 22 26  1  0
 23 26  2  0
 23 29  1  0
 25 30  1  0
 26 31  1  0
 27 32  1  0
 27 33  1  0
 27 34  1  0
 28 37  2  0
 28 38  1  0
 29 35  2  0
 30 39  2  0
 30 40  1  0
 31 36  2  0
 35 36  1  0
 37 41  1  0
 39 42  1  0
 40 43  2  0
 41 45  2  0
 42 44  2  0
 43 44  1  0
M  END
$$$$
