
     RDKit          2D

101106  0  0  0  0  0  0  0  0999 V2000
   -2.2148   -2.0385    0.0000 C   0  0  0  0  0  0  0  0  0  0  0  0
   -2.9162   -3.3172    0.0000 C   0  0  0  0  0  0  0  0  0  0  0  0
   -2.2148   -3.7297    0.0000 C   0  0  0  0  0  0  0  0  0  0  0  0
   -1.4724   -3.3172    0.0000 C   0  0  0  0  0  0  0  0  0  0  0  0
   -1.4724   -2.4509    0.0000 N   0  0  0  0  0  0  0  0  0  0  0  0
  -10.6298   -2.0385    0.0000 C   0  0  0  0  0  0  0  0  0  0  0  0
  -10.6298   -1.2135    0.0000 C   0  0  0  0  0  0  0  0  0  0  0  0
  -11.3310   -0.8010    0.0000 C   0  0  0  0  0  0  0  0  0  0  0  0
  -12.0736   -1.2135    0.0000 C   0  0  0  0  0  0  0  0  0  0  0  0
  -12.0736   -2.0385    0.0000 C   0  0  0  0  0  0  0  0  0  0  0  0
  -11.3310   -2.4509    0.0000 C   0  0  0  0  0  0  0  0  0  0  0  0
   -9.9285   -2.4509    0.0000 C   0  0  0  0  0  0  0  0  0  0  0  0
   -9.1862   -2.0385    0.0000 C   0  0  0  0  0  0  0  0  0  0  0  0
   -9.1862   -1.2135    0.0000 C   0  0  0  0  0  0  0  0  0  0  0  0
   -9.9285   -0.8010    0.0000 C   0  0  0  0  0  0  0  0  0  0  0  0
   -8.6086   -0.8010    0.0000 C   0  0  0  0  0  0  0  0  0  0  0  0
   -7.8661   -1.2135    0.0000 C   0  0  0  0  0  0  0  0  0  0  0  0
   -6.4635   -1.2135    0.0000 N   0  0  0  0  0  0  0  0  0  0  0  0
   -7.1648   -0.8010    0.0000 C   0  0  0  0  0  0  0  0  0  0  0  0
   -7.1648    0.0239    0.0000 O   0  0  0  0  0  0  0  0  0  0  0  0
   -5.7623   -0.8010    0.0000 C   0  0  0  0  0  0  0  0  0  0  0  0
   -5.0198   -1.2135    0.0000 C   0  0  0  0  0  0  0  0  0  0  0  0
   -4.3186   -0.8010    0.0000 N   0  0  0  0  0  0  0  0  0  0  0  0
   -3.6173   -1.2135    0.0000 C   0  0  0  0  0  0  0  0  0  0  0  0
   -2.8748   -0.8010    0.0000 C   0  0  0  0  0  0  0  0  0  0  0  0
   -2.1736   -1.2135    0.0000 N   0  0  0  0  0  0  0  0  0  0  0  0
   -1.5136   -0.8010    0.0000 C   0  0  0  0  0  0  0  0  0  0  0  0
   -0.7712   -1.2135    0.0000 C   0  0  0  0  0  0  0  0  0  0  0  0
   -0.0698   -0.8010    0.0000 N   0  0  0  0  0  0  0  0  0  0  0  0
    0.6312   -1.2135    0.0000 C   0  0  0  0  0  0  0  0  0  0  0  0
    1.3738   -0.8010    0.0000 C   0  0  0  0  0  0  0  0  0  0  0  0
   -5.7623    0.0239    0.0000 C   0  0  0  0  0  0  0  0  0  0  0  0
   -5.0198   -2.0385    0.0000 O   0  0  0  0  0  0  0  0  0  0  0  0
   -3.6173   -2.0385    0.0000 C   0  0  0  0  0  0  0  0  0  0  0  0
   -1.5136    0.0239    0.0000 C   0  0  0  0  0  0  0  0  0  0  0  0
   -2.8748    0.0239    0.0000 O   0  0  0  0  0  0  0  0  0  0  0  0
   -0.7712   -2.0385    0.0000 O   0  0  0  0  0  0  0  0  0  0  0  0
   -0.0698    0.0239    0.0000 C   0  0  0  0  0  0  0  0  0  0  0  0
    1.3738    0.0239    0.0000 O   0  0  0  0  0  0  0  0  0  0  0  0
    2.0750   -1.2135    0.0000 N   0  0  0  0  0  0  0  0  0  0  0  0
    4.2201   -0.8010    0.0000 N   0  0  0  0  0  0  0  0  0  0  0  0
    2.7763   -0.8010    0.0000 C   0  0  0  0  0  0  0  0  0  0  0  0
    3.4775   -1.2135    0.0000 C   0  0  0  0  0  0  0  0  0  0  0  0
    4.2201    0.0239    0.0000 N   0  0  0  0  0  0  0  0  0  0  0  0
    3.4775    0.4364    0.0000 C   0  0  0  0  0  0  0  0  0  0  0  0
    2.7763    0.0239    0.0000 C   0  0  0  0  0  0  0  0  0  0  0  0
    3.4775    1.2614    0.0000 O   0  0  0  0  0  0  0  0  0  0  0  0
    3.4775   -2.0385    0.0000 O   0  0  0  0  0  0  0  0  0  0  0  0
    4.9625   -1.2135    0.0000 C   0  0  0  0  0  0  0  0  0  0  0  0
    5.6638   -0.8010    0.0000 C   0  0  0  0  0  0  0  0  0  0  0  0
    6.3652   -1.2135    0.0000 N   0  0  0  0  0  0  0  0  0  0  0  0
    7.1075   -0.8010    0.0000 C   0  0  0  0  0  0  0  0  0  0  0  0
    7.8088   -1.2135    0.0000 C   0  0  0  0  0  0  0  0  0  0  0  0
    5.0038   -2.0385    0.0000 C   0  0  0  0  0  0  0  0  0  0  0  0
    5.6638    0.0239    0.0000 O   0  0  0  0  0  0  0  0  0  0  0  0
    0.6312   -2.0385    0.0000 C   0  0  0  0  0  0  0  0  0  0  0  0
    7.8088   -2.0385    0.0000 O   0  0  0  0  0  0  0  0  0  0  0  0
   -7.8661   -2.0385    0.0000 N   0  0  0  0  0  0  0  0  0  0  0  0
   -7.1648   -2.4509    0.0000 C   0  0  0  0  0  0  0  0  0  0  0  0
   -6.4635   -2.0385    0.0000 C   0  0  0  0  0  0  0  0  0  0  0  0
   -7.1648   -3.2759    0.0000 O   0  0  0  0  0  0  0  0  0  0  0  0
    9.2113   -1.2135    0.0000 C   0  0  0  0  0  0  0  0  0  0  0  0
    9.6238    0.0652    0.0000 C   0  0  0  0  0  0  0  0  0  0  0  0
    8.7988    0.0652    0.0000 C   0  0  0  0  0  0  0  0  0  0  0  0
    8.5513   -0.7185    0.0000 N   0  0  0  0  0  0  0  0  0  0  0  0
    9.8713   -0.7185    0.0000 C   0  0  0  0  0  0  0  0  0  0  0  0
    9.2113   -1.9973    0.0000 C   0  0  0  0  0  0  0  0  0  0  0  0
    8.5047   -2.4257    0.0000 O   0  0  0  0  0  0  0  0  0  0  0  0
   -5.0611    0.4364    0.0000 C   0  0  0  0  0  0  0  0  0  0  0  0
   -4.3186    0.0652    0.0000 C   0  0  0  0  0  0  0  0  0  0  0  0
   -3.6173    0.5190    0.0000 C   0  0  0  0  0  0  0  0  0  0  0  0
   -3.6172    1.3026    0.0000 C   0  0  0  0  0  0  0  0  0  0  0  0
   -4.3596    1.7152    0.0000 C   0  0  0  0  0  0  0  0  0  0  0  0
   -5.0609    1.2614    0.0000 C   0  0  0  0  0  0  0  0  0  0  0  0
   -2.9160    1.7564    0.0000 Cl  0  0  0  0  0  0  0  0  0  0  0  0
   -2.9162   -2.4509    0.0000 C   0  0  0  0  0  0  0  0  0  0  0  0
   -0.8124    0.4364    0.0000 O   0  0  0  0  0  0  0  0  0  0  0  0
    1.3325   -2.4509    0.0000 C   0  0  0  0  0  0  0  0  0  0  0  0
    2.0750   -2.0385    0.0000 C   0  0  0  0  0  0  0  0  0  0  0  0
    1.2960   -3.2796    0.0000 C   0  0  0  0  0  0  0  0  0  0  0  0
    2.0466   -3.7010    0.0000 C   0  0  0  0  0  0  0  0  0  0  0  0
    2.7594   -3.3091    0.0000 C   0  0  0  0  0  0  0  0  0  0  0  0
    2.7842   -2.4600    0.0000 C   0  0  0  0  0  0  0  0  0  0  0  0
    3.4653   -3.7362    0.0000 O   0  0  0  0  0  0  0  0  0  0  0  0
    5.7379   -2.4147    0.0000 C   0  0  0  0  0  0  0  0  0  0  0  0
    6.4310   -1.9671    0.0000 C   0  0  0  0  0  0  0  0  0  0  0  0
    5.7379   -3.2397    0.0000 C   0  0  0  0  0  0  0  0  0  0  0  0
    9.9302   -2.4020    0.0000 N   0  0  0  0  0  0  0  0  0  0  0  0
   11.3591   -2.4020    0.0000 C   0  0  0  0  0  0  0  0  0  0  0  0
   12.0736   -1.9896    0.0000 N   0  0  0  0  0  0  0  0  0  0  0  0
   10.6447   -1.9896    0.0000 C   0  0  0  0  0  0  0  0  0  0  0  0
   10.6447   -1.1646    0.0000 C   0  0  0  0  0  0  0  0  0  0  0  0
   11.3591   -3.2270    0.0000 O   0  0  0  0  0  0  0  0  0  0  0  0
    7.1177    0.0238    0.0000 C   0  0  0  0  0  0  0  0  0  0  0  0
    7.8321    0.4363    0.0000 C   0  0  0  0  0  0  0  0  0  0  0  0
    7.8321    1.2613    0.0000 C   0  0  0  0  0  0  0  0  0  0  0  0
    8.5467    1.6738    0.0000 C   0  0  0  0  0  0  0  0  0  0  0  0
    8.5467    2.4988    0.0000 N   0  0  0  0  0  0  0  0  0  0  0  0
    9.2610    2.9112    0.0000 C   0  0  0  0  0  0  0  0  0  0  0  0
    9.2610    3.7362    0.0000 C   0  0  0  0  0  0  0  0  0  0  0  0
    9.9754    2.4988    0.0000 C   0  0  0  0  0  0  0  0  0  0  0  0
  2  3  1  0
  3  4  2  0
  4  5  1  0
  1  5  2  0
  6  7  1  0
  7  8  2  0
  8  9  1  0
  9 10  2  0
 10 11  1  0
  6 11  2  0
  6 12  1  0
 12 13  2  0
 13 14  1  0
 14 15  2  0
  7 15  1  0
 14 16  1  0
 17 16  1  6
 18 19  1  0
 17 19  1  0
 19 20  2  0
 18 21  1  0
 21 22  1  0
 22 23  1  0
 23 24  1  0
 24 25  1  0
 25 26  1  0
 26 27  1  0
 27 28  1  0
 28 29  1  0
 29 30  1  0
 30 31  1  0
 21 32  1  6
 22 33  2  0
 24 34  1  1
 27 35  1  1
 25 36  2  0
 28 37  2  0
 29 38  1  0
 31 39  2  0
 31 40  1  0
 42 43  1  0
 43 41  1  0
 44 45  1  0
 45 46  1  0
 45 47  2  0
 43 48  2  0
 42 46  1  6
 40 42  1  0
 49 50  1  0
 50 51  1  0
 51 52  1  0
 52 53  1  0
 41 49  1  0
 49 54  1  6
 50 55  2  0
 30 56  1  6
 53 57  2  0
 58 59  1  0
 59 60  1  0
 59 61  2  0
 17 58  1  0
 63 64  1  0
 64 65  1  0
 65 62  1  0
 62 66  1  0
 63 66  1  0
 53 65  1  0
 67 68  2  0
 62 67  1  1
 69 32  1  0
 70 71  2  0
 71 72  1  0
 72 73  2  0
 73 74  1  0
 74 69  2  0
 72 75  1  0
 69 70  1  0
 34 76  1  0
  2 76  2  0
 76  1  1  0
 35 77  1  0
 56 78  1  0
 80 81  1  0
 81 82  2  0
 82 83  1  0
 83 79  2  0
 78 80  2  0
 78 79  1  0
 82 84  1  0
 54 85  1  0
 85 86  1  0
 85 87  1  0
 67 88  1  0
 89 90  1  0
 89 91  1  0
 91 88  1  0
 91 92  1  6
 93 89  2  0
 52 94  1  1
 94 95  1  0
 95 96  1  0
 96 97  1  0
 97 98  1  0
 98 99  1  0
 99100  1  0
 99101  1  0
M  END
$$$$
