
     RDKit          2D

 24 26  0  0  0  0  0  0  0  0999 V2000
    0.7842    0.1536    0.0000 O   0  0  0  0  0  0  0  0  0  0  0  0
   -0.4539   -0.5597    0.0000 O   0  0  0  0  0  0  0  0  0  0  0  0
    2.0195   -1.9910    0.0000 O   0  0  0  0  0  0  0  0  0  0  0  0
   -1.2551    2.1103    0.0000 N   0  0  0  0  0  0  0  0  0  0  0  0
   -0.6945    1.6703    0.0000 C   0  0  0  0  0  0  0  0  0  0  0  0
   -1.1154    1.2972    0.0000 C   0  0  0  0  0  0  0  0  0  0  0  0
   -1.1650    2.9303    0.0000 C   0  0  0  0  0  0  0  0  0  0  0  0
    0.3724    0.8685    0.0000 C   0  0  0  0  0  0  0  0  0  0  0  0
    0.2342    1.6858    0.0000 C   0  0  0  0  0  0  0  0  0  0  0  0
   -0.1437    1.2972    0.0000 C   0  0  0  0  0  0  0  0  0  0  0  0
   -1.0150    0.9617    0.0000 C   0  0  0  0  0  0  0  0  0  0  0  0
   -1.6353    0.5848    0.0000 C   0  0  0  0  0  0  0  0  0  0  0  0
   -2.0195    2.4206    0.0000 C   0  0  0  0  0  0  0  0  0  0  0  0
    0.3710   -0.5605    0.0000 C   0  0  0  0  0  0  0  0  0  0  0  0
    0.7828   -1.2754    0.0000 C   0  0  0  0  0  0  0  0  0  0  0  0
   -1.8302    3.4184    0.0000 C   0  0  0  0  0  0  0  0  0  0  0  0
   -0.4098    3.2623    0.0000 C   0  0  0  0  0  0  0  0  0  0  0  0
    0.3695   -1.9894    0.0000 C   0  0  0  0  0  0  0  0  0  0  0  0
    1.6078   -1.2762    0.0000 C   0  0  0  0  0  0  0  0  0  0  0  0
    0.7813   -2.7043    0.0000 C   0  0  0  0  0  0  0  0  0  0  0  0
   -0.4554   -1.9886    0.0000 C   0  0  0  0  0  0  0  0  0  0  0  0
    0.3681   -3.4184    0.0000 C   0  0  0  0  0  0  0  0  0  0  0  0
   -0.8686   -2.7027    0.0000 C   0  0  0  0  0  0  0  0  0  0  0  0
   -0.4568   -3.4175    0.0000 C   0  0  0  0  0  0  0  0  0  0  0  0
  8  1  1  6
  1 14  1  0
  2 14  2  0
  3 19  1  0
  4  5  1  0
  4  6  1  0
  4  7  1  0
  4 13  1  0
  5  9  1  1
  5 11  1  0
  6 10  1  6
  6 12  1  0
  7 16  1  0
  7 17  1  0
  8  9  1  0
  8 10  1  0
 11 12  1  0
 14 15  1  0
 15 18  1  0
 15 19  1  0
 18 20  2  0
 18 21  1  0
 20 22  1  0
 21 23  2  0
 22 24  2  0
 23 24  1  0
M  CHG  1   4   1
M  END
$$$$
