775
     RDKit          2D

 30 31  0  0  1  0  0  0  0  0999 V2000
    7.0944    3.3001    0.0000 S   0  0  0  0  0  0  0  0  0  0  0  0
    5.6655   -1.6500    0.0000 O   0  0  0  0  0  0  0  0  0  0  0  0
    7.5069    2.5856    0.0000 O   0  0  0  0  0  0  0  0  0  0  0  0
    6.6819    4.0145    0.0000 O   0  0  0  0  0  0  0  0  0  0  0  0
    7.8089    2.0625    0.0000 O   0  0  0  0  0  0  0  0  0  0  0  0
    7.0944    0.8250    0.0000 O   0  0  0  0  0  0  0  0  0  0  0  0
    2.0930   -5.3626    0.0000 N   0  0  0  0  0  0  0  0  0  0  0  0
    6.3799    2.8876    0.0000 N   0  0  0  0  0  0  0  0  0  0  0  0
    3.5220   -4.5376    0.0000 C   0  0  0  0  0  0  0  0  0  0  0  0
    3.5220   -5.3626    0.0000 C   0  0  0  0  0  0  0  0  0  0  0  0
    2.8075   -4.1251    0.0000 C   0  0  0  0  0  0  0  0  0  0  0  0
    4.2365   -4.1251    0.0000 C   0  0  0  0  0  0  0  0  0  0  0  0
    2.8075   -5.7751    0.0000 C   0  0  0  0  0  0  0  0  0  0  0  0
    2.0930   -4.5376    0.0000 C   0  0  0  0  0  0  0  0  0  0  0  0
    4.2365   -3.3001    0.0000 C   0  0  0  0  0  0  0  0  0  0  0  0
    4.9509   -2.8876    0.0000 C   0  0  0  0  0  0  0  0  0  0  0  0
    4.9509   -2.0625    0.0000 C   0  0  0  0  0  0  0  0  0  0  0  0
    6.3799    2.0625    0.0000 C   0  0  0  0  0  0  0  0  0  0  0  0
    5.6655    1.6500    0.0000 C   0  0  0  0  0  0  0  0  0  0  0  0
    7.8089    3.7126    0.0000 C   0  0  0  0  0  0  0  0  0  0  0  0
    5.6655   -0.8250    0.0000 C   0  0  0  0  0  0  0  0  0  0  0  0
    7.8089    4.5376    0.0000 C   0  0  0  0  0  0  0  0  0  0  0  0
    5.6655    0.8250    0.0000 C   0  0  0  0  0  0  0  0  0  0  0  0
    8.5234    4.9501    0.0000 C   0  0  0  0  0  0  0  0  0  0  0  0
    6.3799   -0.4125    0.0000 C   0  0  0  0  0  0  0  0  0  0  0  0
    4.9509   -0.4125    0.0000 C   0  0  0  0  0  0  0  0  0  0  0  0
    6.3799    0.4125    0.0000 C   0  0  0  0  0  0  0  0  0  0  0  0
    4.9509    0.4125    0.0000 C   0  0  0  0  0  0  0  0  0  0  0  0
    7.0944    1.6500    0.0000 C   0  0  0  0  0  0  0  0  0  0  0  0
    8.5234    5.7751    0.0000 C   0  0  0  0  0  0  0  0  0  0  0  0
  1  3  2  0
  1  4  2  0
  1  8  1  0
  1 20  1  0
  2 17  1  0
  2 21  1  0
  5 29  1  0
  6 29  2  0
  7 13  1  0
  7 14  1  0
 18  8  1  0
  9 10  1  0
  9 11  1  0
  9 12  1  0
 10 13  1  0
 11 14  1  0
 12 15  1  0
 15 16  1  0
 16 17  1  0
 18 19  1  6
 18 29  1  0
 19 23  1  0
 20 22  1  0
 21 25  2  0
 21 26  1  0
 22 24  1  0
 23 27  2  0
 23 28  1  0
 24 30  1  0
 25 27  1  0
 26 28  2  0
M  END
$$$$
