
     RDKit          2D

 29 33  0  0  0  0  0  0  0  0999 V2000
   -2.0660    1.2111    0.0000 N   0  0  0  0  0  0  0  0  0  0  0  0
    0.2931   -1.2692    0.0000 C   0  0  0  0  0  0  0  0  0  0  0  0
    1.0003   -0.8477    0.0000 C   0  0  0  0  0  0  0  0  0  0  0  0
   -1.5041    0.7653    0.0000 C   0  0  0  0  0  0  0  0  0  0  0  0
   -1.9256    0.3874    0.0000 C   0  0  0  0  0  0  0  0  0  0  0  0
   -0.4237   -0.8622    0.0000 O   0  0  0  0  0  0  0  0  0  0  0  0
   -0.4189   -0.0436    0.0000 C   0  0  0  0  0  0  0  0  0  0  0  0
   -0.9422    0.3874    0.0000 C   0  0  0  0  0  0  0  0  0  0  0  0
   -0.5642    0.7848    0.0000 C   0  0  0  0  0  0  0  0  0  0  0  0
    0.2978   -2.0927    0.0000 O   0  0  0  0  0  0  0  0  0  0  0  0
   -2.4535   -0.3294    0.0000 C   0  0  0  0  0  0  0  0  0  0  0  0
   -1.8238    0.0485    0.0000 C   0  0  0  0  0  0  0  0  0  0  0  0
    1.7173   -1.2547    0.0000 C   0  0  0  0  0  0  0  0  0  0  0  0
    1.4072   -0.1307    0.0000 C   0  0  0  0  0  0  0  0  0  0  0  0
    0.5837   -0.1307    0.0000 O   0  0  0  0  0  0  0  0  0  0  0  0
   -1.8141    1.9960    0.0000 C   0  0  0  0  0  0  0  0  0  0  0  0
   -2.8894    1.2111    0.0000 C   0  0  0  0  0  0  0  0  0  0  0  0
    1.7221   -2.0781    0.0000 C   0  0  0  0  0  0  0  0  0  0  0  0
    2.4197   -0.8332    0.0000 C   0  0  0  0  0  0  0  0  0  0  0  0
    2.2356   -0.1210    0.0000 C   0  0  0  0  0  0  0  0  0  0  0  0
    0.9809    0.5764    0.0000 C   0  0  0  0  0  0  0  0  0  0  0  0
   -3.1464    1.9960    0.0000 C   0  0  0  0  0  0  0  0  0  0  0  0
   -2.4778    2.4802    0.0000 C   0  0  0  0  0  0  0  0  0  0  0  0
    1.3832    1.2983    0.0000 C   0  0  0  0  0  0  0  0  0  0  0  0
    2.4391   -2.4802    0.0000 C   0  0  0  0  0  0  0  0  0  0  0  0
    3.1367   -1.2353    0.0000 C   0  0  0  0  0  0  0  0  0  0  0  0
    2.6377    0.6007    0.0000 C   0  0  0  0  0  0  0  0  0  0  0  0
    2.2162    1.3128    0.0000 C   0  0  0  0  0  0  0  0  0  0  0  0
    3.1464   -2.0636    0.0000 C   0  0  0  0  0  0  0  0  0  0  0  0
  2  6  1  0
  3  2  1  0
  4  1  1  0
  5  1  1  0
  7  6  1  6
  7  9  1  0
  5  8  1  6
  4  9  1  1
 10  2  2  0
 11  5  1  0
 12  4  1  0
 13  3  1  0
 14  3  1  0
 15  3  1  0
 16  1  1  0
 17  1  1  0
 18 13  2  0
 19 13  1  0
 20 14  2  0
 21 14  1  0
 22 17  1  0
 23 16  1  0
 24 21  2  0
 25 18  1  0
 26 19  2  0
 27 20  1  0
 28 24  1  0
 29 25  2  0
 12 11  1  0
  8  7  1  0
 22 23  1  0
 28 27  2  0
 26 29  1  0
M  CHG  1   1   1
M  END
$$$$
