
     RDKit          2D

 78 79  0  0  1  0  0  0  0  0999 V2000
    1.3850    3.4643    0.0000 O   0  0  0  0  0  0  0  0  0  0  0  0
    1.0639    4.2190    0.0000 Al  0  0  0  0  0  6  0  0  0  0  0  0
    1.7268    4.6592    0.0000 O   0  0  0  0  0  0  0  0  0  0  0  0
    0.2886    4.4785    0.0000 O   0  0  0  0  0  0  0  0  0  0  0  0
   -0.5334    4.6289    0.0000 S   0  0  0  0  0  0  0  0  0  0  0  0
   -0.5156    5.4566    0.0000 O   0  0  0  0  0  0  0  0  0  0  0  0
   -0.6053    3.8106    0.0000 O   0  0  0  0  0  0  0  0  0  0  0  0
   -1.3643    4.6020    0.0000 O   0  0  0  0  0  0  0  0  0  0  0  0
   -2.1465    4.3262    0.0000 C   0  0  0  0  0  0  0  0  0  0  0  0
   -2.8441    3.8666    0.0000 C   0  0  0  0  0  0  0  0  0  0  0  0
   -2.3770    3.2170    0.0000 O   0  0  0  0  0  0  0  0  0  0  0  0
   -2.7060    2.4876    0.0000 C   0  0  0  0  0  0  0  0  0  0  0  0
   -2.2064    1.8479    0.0000 O   0  0  0  0  0  0  0  0  0  0  0  0
   -2.5679    1.1086    0.0000 C   0  0  0  0  0  0  0  0  0  0  0  0
   -1.6965    0.9837    0.0000 C   0  0  0  0  0  0  0  0  0  0  0  0
   -0.8516    0.9298    0.0000 O   0  0  0  0  0  0  0  0  0  0  0  0
    0.0016    0.9186    0.0000 S   0  0  0  0  0  0  0  0  0  0  0  0
   -0.0740    1.7452    0.0000 O   0  0  0  0  0  0  0  0  0  0  0  0
    0.2189    0.1224    0.0000 O   0  0  0  0  0  0  0  0  0  0  0  0
    0.8338    0.9963    0.0000 O   0  0  0  0  0  0  0  0  0  0  0  0
    1.6588    0.9837    0.0000 Al  0  0  0  0  0  6  0  0  0  0  0  0
    2.2028    1.5909    0.0000 O   0  0  0  0  0  0  0  0  0  0  0  0
    2.2508    0.4181    0.0000 O   0  0  0  0  0  0  0  0  0  0  0  0
   -3.2588    1.5121    0.0000 O   0  0  0  0  0  0  0  0  0  0  0  0
   -3.8561    0.9796    0.0000 C   0  0  0  0  0  0  0  0  0  0  0  0
   -4.5992    0.4694    0.0000 O   0  0  0  0  0  0  0  0  0  0  0  0
   -5.3382   -0.0455    0.0000 S   0  0  0  0  0  0  0  0  0  0  0  0
   -4.9141   -0.7571    0.0000 O   0  0  0  0  0  0  0  0  0  0  0  0
   -6.1452    0.2602    0.0000 O   0  0  0  0  0  0  0  0  0  0  0  0
   -5.8878   -0.7157    0.0000 O   0  0  0  0  0  0  0  0  0  0  0  0
   -6.5139   -1.2452    0.0000 Al  0  0  0  0  0  6  0  0  0  0  0  0
   -6.7518   -2.0707    0.0000 O   0  0  0  0  0  0  0  0  0  0  0  0
   -7.3689   -1.0795    0.0000 O   0  0  0  0  0  0  0  0  0  0  0  0
   -3.5342    0.2470    0.0000 C   0  0  0  0  0  0  0  0  0  0  0  0
   -3.8186   -0.5899    0.0000 O   0  0  0  0  0  0  0  0  0  0  0  0
   -4.0418   -1.4473    0.0000 S   0  0  0  0  0  0  0  0  0  0  0  0
   -3.2798   -1.8544    0.0000 O   0  0  0  0  0  0  0  0  0  0  0  0
   -4.7571   -1.7364    0.0000 O   0  0  0  0  0  0  0  0  0  0  0  0
   -4.0861   -2.3124    0.0000 O   0  0  0  0  0  0  0  0  0  0  0  0
   -4.2485   -3.1776    0.0000 Al  0  0  0  0  0  6  0  0  0  0  0  0
   -4.9082   -3.5555    0.0000 O   0  0  0  0  0  0  0  0  0  0  0  0
   -3.8163   -3.8501    0.0000 O   0  0  0  0  0  0  0  0  0  0  0  0
   -2.7380    0.3268    0.0000 C   0  0  0  0  0  0  0  0  0  0  0  0
   -2.1860   -0.3470    0.0000 O   0  0  0  0  0  0  0  0  0  0  0  0
   -1.6684   -1.0164    0.0000 S   0  0  0  0  0  0  0  0  0  0  0  0
   -2.3344   -1.5352    0.0000 O   0  0  0  0  0  0  0  0  0  0  0  0
   -0.8714   -0.8214    0.0000 O   0  0  0  0  0  0  0  0  0  0  0  0
   -1.3482   -1.7991    0.0000 O   0  0  0  0  0  0  0  0  0  0  0  0
   -1.1570   -2.6070    0.0000 Al  0  0  0  0  0  6  0  0  0  0  0  0
   -1.7785   -3.1115    0.0000 O   0  0  0  0  0  0  0  0  0  0  0  0
   -0.5977   -3.1967    0.0000 O   0  0  0  0  0  0  0  0  0  0  0  0
   -3.5022    2.4079    0.0000 C   0  0  0  0  0  0  0  0  0  0  0  0
   -4.3682    2.1813    0.0000 O   0  0  0  0  0  0  0  0  0  0  0  0
   -5.2375    1.9938    0.0000 S   0  0  0  0  0  0  0  0  0  0  0  0
   -5.4455    1.2421    0.0000 O   0  0  0  0  0  0  0  0  0  0  0  0
   -5.6921    2.6868    0.0000 O   0  0  0  0  0  0  0  0  0  0  0  0
   -6.1019    1.8823    0.0000 O   0  0  0  0  0  0  0  0  0  0  0  0
   -6.9419    1.8430    0.0000 Al  0  0  0  0  0  6  0  0  0  0  0  0
   -3.9692    3.0575    0.0000 C   0  0  0  0  0  0  0  0  0  0  0  0
   -4.7180    3.5411    0.0000 O   0  0  0  0  0  0  0  0  0  0  0  0
   -5.4359    4.0165    0.0000 S   0  0  0  0  0  0  0  0  0  0  0  0
   -6.1091    3.5307    0.0000 O   0  0  0  0  0  0  0  0  0  0  0  0
   -5.3190    4.8399    0.0000 O   0  0  0  0  0  0  0  0  0  0  0  0
   -6.1952    4.4449    0.0000 O   0  0  0  0  0  0  0  0  0  0  0  0
   -7.0083    4.6984    0.0000 Al  0  0  0  0  0  6  0  0  0  0  0  0
   -7.7064    4.2848    0.0000 O   0  0  0  0  0  0  0  0  0  0  0  0
   -7.4545    5.3795    0.0000 O   0  0  0  0  0  0  0  0  0  0  0  0
   -3.6403    3.7868    0.0000 C   0  0  0  0  0  0  0  0  0  0  0  0
   -3.6890    4.6483    0.0000 O   0  0  0  0  0  0  0  0  0  0  0  0
   -3.6869    5.5159    0.0000 S   0  0  0  0  0  0  0  0  0  0  0  0
   -4.5081    5.5967    0.0000 O   0  0  0  0  0  0  0  0  0  0  0  0
   -2.9036    5.7781    0.0000 O   0  0  0  0  0  0  0  0  0  0  0  0
   -3.8117    6.3486    0.0000 O   0  0  0  0  0  0  0  0  0  0  0  0
   -4.0202    7.1653    0.0000 Al  0  0  0  0  0  6  0  0  0  0  0  0
   -4.7074    7.6101    0.0000 O   0  0  0  0  0  0  0  0  0  0  0  0
   -3.5619    7.8360    0.0000 O   0  0  0  0  0  0  0  0  0  0  0  0
   -7.5776    2.3686    0.0000 O   0  0  0  0  0  0  0  0  0  0  0  0
   -7.5317    1.2575    0.0000 O   0  0  0  0  0  0  0  0  0  0  0  0
  1  2  1  0
  2  3  1  0
  2  4  1  0
  4  5  1  0
  5  6  2  0
  5  7  2  0
  5  8  1  0
  8  9  1  0
 10  9  1  1
 10 11  1  0
 11 12  1  0
 12 13  1  1
 14 13  1  0
 14 15  1  6
 15 16  1  0
 16 17  1  0
 17 18  2  0
 17 19  2  0
 17 20  1  0
 20 21  1  0
 21 22  1  0
 21 23  1  0
 14 24  1  0
 24 25  1  0
 25 26  1  1
 26 27  1  0
 27 28  2  0
 27 29  2  0
 27 30  1  0
 30 31  1  0
 31 32  1  0
 31 33  1  0
 25 34  1  0
 34 35  1  6
 35 36  1  0
 36 37  2  0
 36 38  2  0
 36 39  1  0
 39 40  1  0
 40 41  1  0
 40 42  1  0
 34 43  1  0
 14 43  1  0
 43 44  1  1
 44 45  1  0
 45 46  2  0
 45 47  2  0
 45 48  1  0
 48 49  1  0
 49 50  1  0
 49 51  1  0
 12 52  1  0
 52 53  1  6
 53 54  1  0
 54 55  2  0
 54 56  2  0
 54 57  1  0
 57 58  1  0
 52 59  1  0
 59 60  1  1
 60 61  1  0
 61 62  2  0
 61 63  2  0
 61 64  1  0
 64 65  1  0
 65 66  1  0
 65 67  1  0
 59 68  1  0
 10 68  1  0
 68 69  1  6
 69 70  1  0
 70 71  2  0
 70 72  2  0
 70 73  1  0
 73 74  1  0
 74 75  1  0
 74 76  1  0
 58 77  1  0
 58 78  1  0
M  END
$$$$
