649
     RDKit          2D

 16 17  0  0  1  0  0  0  0  0999 V2000
    3.7465   -0.5827    0.0000 O   0  0  0  0  0  0  0  0  0  0  0  0
    3.6409   -2.7885    0.0000 O   0  0  0  0  0  0  0  0  0  0  0  0
    1.6500    0.7273    0.0000 O   0  0  0  0  0  0  0  0  0  0  0  0
    3.0791    3.2023    0.0000 O   0  0  0  0  0  0  0  0  0  0  0  0
    3.0791    0.7273    0.0000 N   0  0  0  0  0  0  0  0  0  0  0  0
    2.3645    1.9648    0.0000 N   0  0  0  0  0  0  0  0  0  0  0  0
    3.0791   -0.0978    0.0000 C   0  0  0  0  0  0  0  0  0  0  0  0
    3.4916   -1.3673    0.0000 C   0  0  0  0  0  0  0  0  0  0  0  0
    2.4115   -0.5827    0.0000 C   0  0  0  0  0  0  0  0  0  0  0  0
    2.6665   -1.3673    0.0000 C   0  0  0  0  0  0  0  0  0  0  0  0
    3.9764   -2.0348    0.0000 C   0  0  0  0  0  0  0  0  0  0  0  0
    3.7935    1.1398    0.0000 C   0  0  0  0  0  0  0  0  0  0  0  0
    2.3645    1.1398    0.0000 C   0  0  0  0  0  0  0  0  0  0  0  0
    3.7935    1.9648    0.0000 C   0  0  0  0  0  0  0  0  0  0  0  0
    3.0791    2.3773    0.0000 C   0  0  0  0  0  0  0  0  0  0  0  0
    4.5080    2.3773    0.0000 C   0  0  0  0  0  0  0  0  0  0  0  0
  1  7  1  0
  1  8  1  0
  2 11  1  0
  3 13  2  0
  4 15  2  0
  7  5  1  6
  5 12  1  0
  5 13  1  0
  6 13  1  0
  6 15  1  0
  7  9  1  0
  8 10  1  0
  8 11  1  6
  9 10  2  0
 12 14  2  0
 14 15  1  0
 14 16  1  0
M  END
$$$$
