491
     RDKit          2D

 14 14  0  0  1  0  0  0  0  0999 V2000
    4.9509   -1.4438    0.0000 O   0  0  0  0  0  0  0  0  0  0  0  0
    3.5220   -2.2688    0.0000 O   0  0  0  0  0  0  0  0  0  0  0  0
    2.0930   -1.4438    0.0000 O   0  0  0  0  0  0  0  0  0  0  0  0
    4.9509    1.0313    0.0000 O   0  0  0  0  0  0  0  0  0  0  0  0
    2.8075    2.2688    0.0000 O   0  0  0  0  0  0  0  0  0  0  0  0
    3.5220    0.2063    0.0000 N   0  0  0  0  0  0  0  0  0  0  0  0
    4.2365   -0.2063    0.0000 C   0  0  0  0  0  0  0  0  0  0  0  0
    4.2365   -1.0313    0.0000 C   0  0  0  0  0  0  0  0  0  0  0  0
    3.5220   -1.4438    0.0000 C   0  0  0  0  0  0  0  0  0  0  0  0
    2.8075   -1.0313    0.0000 C   0  0  0  0  0  0  0  0  0  0  0  0
    2.8075   -0.2063    0.0000 C   0  0  0  0  0  0  0  0  0  0  0  0
    4.9509    0.2063    0.0000 C   0  0  0  0  0  0  0  0  0  0  0  0
    3.5220    1.0313    0.0000 C   0  0  0  0  0  0  0  0  0  0  0  0
    2.8075    1.4438    0.0000 C   0  0  0  0  0  0  0  0  0  0  0  0
  8  1  1  1
  9  2  1  6
 10  3  1  1
  4 12  1  0
  5 14  1  0
  6  7  1  0
  6 11  1  0
  6 13  1  0
  7  8  1  0
  7 12  1  6
  8  9  1  0
  9 10  1  0
 10 11  1  0
 13 14  1  0
M  END
$$$$
