
     RDKit          2D

 22 24  0  0  0  0  0  0  0  0999 V2000
   -1.1485    0.5659    0.0000 C   0  0  0  0  0  0  0  0  0  0  0  0
   -0.4365    0.1534    0.0000 C   0  0  0  0  0  0  0  0  0  0  0  0
   -0.4365   -0.6715    0.0000 N   0  0  0  0  0  0  0  0  0  0  0  0
   -1.1485   -1.0840    0.0000 S   0  0  0  0  0  0  0  0  0  0  0  0
   -1.8646    0.1534    0.0000 C   0  0  0  0  0  0  0  0  0  0  0  0
   -1.8622   -0.6733    0.0000 C   0  0  0  0  0  0  0  0  0  0  0  0
   -2.6476   -0.9310    0.0000 C   0  0  0  0  0  0  0  0  0  0  0  0
   -3.1355   -0.2636    0.0000 C   0  0  0  0  0  0  0  0  0  0  0  0
   -2.6515    0.4065    0.0000 S   0  0  0  0  0  0  0  0  0  0  0  0
    0.2781    0.5654    0.0000 C   0  0  0  0  0  0  0  0  0  0  0  0
    0.2789    1.3903    0.0000 O   0  0  0  0  0  0  0  0  0  0  0  0
    0.9923    0.1524    0.0000 N   0  0  0  0  0  0  0  0  0  0  0  0
    1.7072    0.5644    0.0000 C   0  0  0  0  0  0  0  0  0  0  0  0
    1.7066    1.3864    0.0000 C   0  0  0  0  0  0  0  0  0  0  0  0
    2.4213    1.7985    0.0000 C   0  0  0  0  0  0  0  0  0  0  0  0
    3.1355    1.3854    0.0000 C   0  0  0  0  0  0  0  0  0  0  0  0
    3.1349    0.5605    0.0000 C   0  0  0  0  0  0  0  0  0  0  0  0
    2.4201    0.1484    0.0000 N   0  0  0  0  0  0  0  0  0  0  0  0
    0.2781   -1.0834    0.0000 C   0  0  0  0  0  0  0  0  0  0  0  0
   -1.1475    1.3909    0.0000 O   0  0  0  0  0  0  0  0  0  0  0  0
   -1.5608   -1.7985    0.0000 O   0  0  0  0  0  0  0  0  0  0  0  0
   -0.7360   -1.7985    0.0000 O   0  0  0  0  0  0  0  0  0  0  0  0
  5  1  1  0
  1  2  2  0
  2 10  1  0
  2  3  1  0
 10 11  2  0
  3  4  1  0
 10 12  1  0
  5  6  2  0
 12 13  1  0
  6  7  1  0
  7  8  2  0
  8  9  1  0
  9  5  1  0
  4  6  1  0
 13 14  2  0
 14 15  1  0
 15 16  2  0
 16 17  1  0
 17 18  2  0
 18 13  1  0
  3 19  1  0
  1 20  1  0
  4 21  2  0
 22  4  2  0
M  END
$$$$
