923
     RDKit          2D

 35 38  0  0  1  0  0  0  0  0999 V2000
    6.8758   -0.3017    0.0000 S   0  0  0  0  0  0  0  0  0  0  0  0
    4.7323    0.9358    0.0000 S   0  0  0  0  0  0  0  0  0  0  0  0
    9.0042    1.5238    0.0000 O   0  0  0  0  0  0  0  0  0  0  0  0
    6.1613    2.5858    0.0000 O   0  0  0  0  0  0  0  0  0  0  0  0
   10.0167    0.5311    0.0000 O   0  0  0  0  0  0  0  0  0  0  0  0
    7.5902    2.5858    0.0000 O   0  0  0  0  0  0  0  0  0  0  0  0
    2.1365   -0.8561    0.0000 O   0  0  0  0  0  0  0  0  0  0  0  0
    1.6949    0.5029    0.0000 O   0  0  0  0  0  0  0  0  0  0  0  0
    7.5902    0.9358    0.0000 N   0  0  0  0  0  0  0  0  0  0  0  0
    9.0042   -0.4772    0.0000 N   0  0  0  0  0  0  0  0  0  0  0  0
    3.2641    1.0128    0.0000 N   0  0  0  0  0  0  0  0  0  0  0  0
    3.9316    2.1688    0.0000 N   0  0  0  0  0  0  0  0  0  0  0  0
   12.1302   -2.6036    0.0000 N   0  0  0  0  0  0  0  0  0  0  0  0
    2.7121    1.6258    0.0000 N   0  0  0  0  0  0  0  0  0  0  0  0
    3.1246    2.3404    0.0000 N   0  0  0  0  0  0  0  0  0  0  0  0
    7.5902    0.1108    0.0000 C   0  0  0  0  0  0  0  0  0  0  0  0
    8.4221    0.1074    0.0000 C   0  0  0  0  0  0  0  0  0  0  0  0
    8.4221    0.9393    0.0000 C   0  0  0  0  0  0  0  0  0  0  0  0
    6.8758    1.3483    0.0000 C   0  0  0  0  0  0  0  0  0  0  0  0
    6.1613    0.9358    0.0000 C   0  0  0  0  0  0  0  0  0  0  0  0
    6.1613    0.1108    0.0000 C   0  0  0  0  0  0  0  0  0  0  0  0
    5.4468    1.3483    0.0000 C   0  0  0  0  0  0  0  0  0  0  0  0
    9.8016   -0.2652    0.0000 C   0  0  0  0  0  0  0  0  0  0  0  0
    6.8758    2.1733    0.0000 C   0  0  0  0  0  0  0  0  0  0  0  0
   10.3837   -0.8498    0.0000 C   0  0  0  0  0  0  0  0  0  0  0  0
   11.1811   -0.6380    0.0000 C   0  0  0  0  0  0  0  0  0  0  0  0
   11.7633   -1.2225    0.0000 C   0  0  0  0  0  0  0  0  0  0  0  0
   11.3962    0.1585    0.0000 C   0  0  0  0  0  0  0  0  0  0  0  0
    4.0179    1.3483    0.0000 C   0  0  0  0  0  0  0  0  0  0  0  0
   11.5481   -2.0190    0.0000 C   0  0  0  0  0  0  0  0  0  0  0  0
   12.5606   -1.0106    0.0000 C   0  0  0  0  0  0  0  0  0  0  0  0
   12.1936    0.3704    0.0000 C   0  0  0  0  0  0  0  0  0  0  0  0
   12.7757   -0.2142    0.0000 C   0  0  0  0  0  0  0  0  0  0  0  0
    3.0926    0.2058    0.0000 C   0  0  0  0  0  0  0  0  0  0  0  0
    2.3080   -0.0492    0.0000 C   0  0  0  0  0  0  0  0  0  0  0  0
 16  1  1  1
  1 21  1  0
  2 22  1  0
  2 29  1  0
  3 18  2  0
  4 24  1  0
  5 23  2  0
  6 24  2  0
  7 35  1  0
  8 35  2  0
  9 16  1  0
  9 18  1  0
  9 19  1  0
 17 10  1  1
 10 23  1  0
 11 14  1  0
 11 29  1  0
 11 34  1  0
 12 15  1  0
 12 29  2  0
 13 30  1  0
 14 15  2  0
 16 17  1  0
 17 18  1  0
 19 20  2  0
 19 24  1  0
 20 21  1  0
 20 22  1  0
 23 25  1  0
 25 26  1  0
 26 27  2  0
 26 28  1  0
 27 30  1  0
 27 31  1  0
 28 32  2  0
 31 33  2  0
 32 33  1  0
 34 35  1  0
M  END
$$$$
