
     RDKit          2D

 48 54  0  0  0  0  0  0  0  0999 V2000
    3.4756    6.1314    0.0000 O   0  0  0  0  0  0  0  0  0  0  0  0
    4.8937    3.1151    0.0000 O   0  0  0  0  0  0  0  0  0  0  0  0
    1.8283    6.9254    0.0000 O   0  0  0  0  0  0  0  0  0  0  0  0
    1.8283    8.5810    0.0000 O   0  0  0  0  0  0  0  0  0  0  0  0
    5.0620    1.3259    0.0000 O   0  0  0  0  0  0  0  0  0  0  0  0
    6.1301    3.2687    0.0000 O   0  0  0  0  0  0  0  0  0  0  0  0
    5.4054    7.3406    0.0000 N   0  0  0  0  0  0  0  0  0  0  0  0
    1.3259    1.9379    0.0000 N   0  0  0  0  0  0  0  0  0  0  0  0
    4.6910    6.9282    0.0000 C   0  0  0  0  0  0  0  0  0  0  0  0
    1.9594    2.4662    0.0000 C   0  0  0  0  0  0  0  0  0  0  0  0
    5.4054    8.1657    0.0000 C   0  0  0  0  0  0  0  0  0  0  0  0
    1.4665    1.1251    0.0000 C   0  0  0  0  0  0  0  0  0  0  0  0
    3.9765    7.3406    0.0000 C   0  0  0  0  0  0  0  0  0  0  0  0
    4.6910    8.5782    0.0000 C   0  0  0  0  0  0  0  0  0  0  0  0
    2.7339    2.1817    0.0000 C   0  0  0  0  0  0  0  0  0  0  0  0
    4.4774    6.1314    0.0000 C   0  0  0  0  0  0  0  0  0  0  0  0
    3.9765    8.1657    0.0000 C   0  0  0  0  0  0  0  0  0  0  0  0
    2.2409    0.8405    0.0000 C   0  0  0  0  0  0  0  0  0  0  0  0
    6.2359    7.3406    0.0000 C   0  0  0  0  0  0  0  0  0  0  0  0
    5.8207    6.6214    0.0000 C   0  0  0  0  0  0  0  0  0  0  0  0
    1.8256    3.2736    0.0000 C   0  0  0  0  0  0  0  0  0  0  0  0
    2.8744    1.3688    0.0000 C   0  0  0  0  0  0  0  0  0  0  0  0
    0.5075    1.7963    0.0000 C   0  0  0  0  0  0  0  0  0  0  0  0
    0.7939    2.5760    0.0000 C   0  0  0  0  0  0  0  0  0  0  0  0
    3.2621    6.9282    0.0000 C   0  0  0  0  0  0  0  0  0  0  0  0
    4.8899    5.4169    0.0000 C   0  0  0  0  0  0  0  0  0  0  0  0
    3.3674    2.7100    0.0000 C   0  0  0  0  0  0  0  0  0  0  0  0
    3.2621    8.5782    0.0000 C   0  0  0  0  0  0  0  0  0  0  0  0
    2.2381    3.9880    0.0000 C   0  0  0  0  0  0  0  0  0  0  0  0
    3.6489    1.0842    0.0000 C   0  0  0  0  0  0  0  0  0  0  0  0
    2.5476    7.3406    0.0000 C   0  0  0  0  0  0  0  0  0  0  0  0
    4.1417    2.4253    0.0000 C   0  0  0  0  0  0  0  0  0  0  0  0
    2.5476    8.1657    0.0000 C   0  0  0  0  0  0  0  0  0  0  0  0
    4.2824    1.6125    0.0000 C   0  0  0  0  0  0  0  0  0  0  0  0
    4.4774    4.7025    0.0000 C   0  0  0  0  0  0  0  0  0  0  0  0
    5.7149    5.4169    0.0000 C   0  0  0  0  0  0  0  0  0  0  0  0
    1.8256    4.7025    0.0000 C   0  0  0  0  0  0  0  0  0  0  0  0
    3.0631    3.9880    0.0000 C   0  0  0  0  0  0  0  0  0  0  0  0
    3.0631    5.4169    0.0000 C   0  0  0  0  0  0  0  0  0  0  0  0
    4.8899    3.9880    0.0000 C   0  0  0  0  0  0  0  0  0  0  0  0
    2.2381    5.4169    0.0000 C   0  0  0  0  0  0  0  0  0  0  0  0
    3.4756    4.7025    0.0000 C   0  0  0  0  0  0  0  0  0  0  0  0
    6.1273    4.7025    0.0000 C   0  0  0  0  0  0  0  0  0  0  0  0
    5.7149    3.9880    0.0000 C   0  0  0  0  0  0  0  0  0  0  0  0
    1.1090    7.3406    0.0000 C   0  0  0  0  0  0  0  0  0  0  0  0
    1.8283    9.4116    0.0000 C   0  0  0  0  0  0  0  0  0  0  0  0
    5.2036    0.5075    0.0000 C   0  0  0  0  0  0  0  0  0  0  0  0
    6.9608    3.2687    0.0000 C   0  0  0  0  0  0  0  0  0  0  0  0
  1 25  1  0
  1 39  1  0
  2 32  1  0
  2 40  1  0
  3 31  1  0
  3 45  1  0
  4 33  1  0
  4 46  1  0
  5 34  1  0
  5 47  1  0
  6 44  1  0
  6 48  1  0
  9  7  1  6
  7 11  1  0
  7 19  1  0
  7 20  1  0
 10  8  1  1
  8 12  1  0
  8 23  1  0
  8 24  1  0
  9 13  1  0
  9 16  1  0
 10 15  1  0
 10 21  1  0
 11 14  1  0
 12 18  1  0
 13 17  2  0
 13 25  1  0
 14 17  1  0
 15 22  2  0
 15 27  1  0
 16 26  1  0
 17 28  1  0
 18 22  1  0
 21 29  1  0
 22 30  1  0
 25 31  2  0
 26 35  1  0
 26 36  2  0
 27 32  2  0
 28 33  2  0
 29 37  2  0
 29 38  1  0
 30 34  2  0
 31 33  1  0
 32 34  1  0
 35 40  2  0
 36 43  1  0
 37 41  1  0
 38 42  2  0
 39 41  2  0
 39 42  1  0
 40 44  1  0
 43 44  2  0
M  CHG  2   7   1   8   1
M  END
$$$$
