229
     RDKit          2D

 34 37  0  0  1  0  0  0  0  0999 V2000
    7.1740   -1.1463    0.0000 S   0  0  0  0  0  0  0  0  0  0  0  0
    5.0305    0.0912    0.0000 S   0  0  0  0  0  0  0  0  0  0  0  0
   12.8123   -1.5552    0.0000 S   0  0  0  0  0  0  0  0  0  0  0  0
    9.3025    0.6792    0.0000 O   0  0  0  0  0  0  0  0  0  0  0  0
    6.4596    1.7413    0.0000 O   0  0  0  0  0  0  0  0  0  0  0  0
    7.8885    1.7413    0.0000 O   0  0  0  0  0  0  0  0  0  0  0  0
   10.3150   -0.3134    0.0000 O   0  0  0  0  0  0  0  0  0  0  0  0
    7.8885    0.0912    0.0000 N   0  0  0  0  0  0  0  0  0  0  0  0
    9.3025   -1.3218    0.0000 N   0  0  0  0  0  0  0  0  0  0  0  0
    3.5623    0.1682    0.0000 N   0  0  0  0  0  0  0  0  0  0  0  0
    2.4347   -1.7008    0.0000 N   0  0  0  0  0  0  0  0  0  0  0  0
   11.7766   -0.7130    0.0000 N   0  0  0  0  0  0  0  0  0  0  0  0
    4.2299    1.3242    0.0000 N   0  0  0  0  0  0  0  0  0  0  0  0
    3.0103    0.7813    0.0000 N   0  0  0  0  0  0  0  0  0  0  0  0
    3.4228    1.4958    0.0000 N   0  0  0  0  0  0  0  0  0  0  0  0
   13.1209   -0.1177    0.0000 N   0  0  0  0  0  0  0  0  0  0  0  0
    7.8885   -0.7338    0.0000 C   0  0  0  0  0  0  0  0  0  0  0  0
    8.7204   -0.7372    0.0000 C   0  0  0  0  0  0  0  0  0  0  0  0
    8.7204    0.0946    0.0000 C   0  0  0  0  0  0  0  0  0  0  0  0
    7.1740    0.5038    0.0000 C   0  0  0  0  0  0  0  0  0  0  0  0
    6.4596    0.0912    0.0000 C   0  0  0  0  0  0  0  0  0  0  0  0
    6.4596   -0.7338    0.0000 C   0  0  0  0  0  0  0  0  0  0  0  0
    5.7450    0.5038    0.0000 C   0  0  0  0  0  0  0  0  0  0  0  0
    7.1740    1.3288    0.0000 C   0  0  0  0  0  0  0  0  0  0  0  0
   10.0999   -1.1099    0.0000 C   0  0  0  0  0  0  0  0  0  0  0  0
   10.6820   -1.6944    0.0000 C   0  0  0  0  0  0  0  0  0  0  0  0
   11.4794   -1.4826    0.0000 C   0  0  0  0  0  0  0  0  0  0  0  0
    4.3161    0.5038    0.0000 C   0  0  0  0  0  0  0  0  0  0  0  0
    3.3908   -0.6388    0.0000 C   0  0  0  0  0  0  0  0  0  0  0  0
    2.6062   -0.8937    0.0000 C   0  0  0  0  0  0  0  0  0  0  0  0
   12.1195   -2.0031    0.0000 C   0  0  0  0  0  0  0  0  0  0  0  0
   12.6004   -0.7579    0.0000 C   0  0  0  0  0  0  0  0  0  0  0  0
    1.6500   -1.9557    0.0000 C   0  0  0  0  0  0  0  0  0  0  0  0
    3.0478   -2.2528    0.0000 C   0  0  0  0  0  0  0  0  0  0  0  0
 17  1  1  1
  1 22  1  0
  2 23  1  0
  2 28  1  0
  3 31  1  0
  3 32  1  0
  4 19  2  0
  5 24  1  0
  6 24  2  0
  7 25  2  0
  8 17  1  0
  8 19  1  0
  8 20  1  0
 18  9  1  1
  9 25  1  0
 10 14  1  0
 10 28  1  0
 10 29  1  0
 11 30  1  0
 11 33  1  0
 11 34  1  0
 12 27  1  0
 12 32  2  0
 13 15  1  0
 13 28  2  0
 14 15  2  0
 16 32  1  0
 17 18  1  0
 18 19  1  0
 20 21  2  0
 20 24  1  0
 21 22  1  0
 21 23  1  0
 25 26  1  0
 26 27  1  0
 27 31  2  0
 29 30  1  0
M  END
$$$$
