
     RDKit          2D

 43 50  0  0  0  0  0  0  0  0999 V2000
    1.7541   -0.8429    0.0000 C   0  0  0  0  0  0  0  0  0  0  0  0
    2.4823   -1.2334    0.0000 C   0  0  0  0  0  0  0  0  0  0  0  0
    2.4774   -2.0481    0.0000 C   0  0  0  0  0  0  0  0  0  0  0  0
    1.8524   -2.5849    0.0000 C   0  0  0  0  0  0  0  0  0  0  0  0
    1.9589   -3.4052    0.0000 C   0  0  0  0  0  0  0  0  0  0  0  0
    2.7370   -3.6771    0.0000 C   0  0  0  0  0  0  0  0  0  0  0  0
    3.3932   -3.1741    0.0000 C   0  0  0  0  0  0  0  0  0  0  0  0
    4.1894   -3.3098    0.0000 N   0  0  0  0  0  0  0  0  0  0  0  0
    4.5709   -2.5816    0.0000 C   0  0  0  0  0  0  0  0  0  0  0  0
    3.2391   -2.3650    0.0000 C   0  0  0  0  0  0  0  0  0  0  0  0
    3.9957   -1.9970    0.0000 C   0  0  0  0  0  0  0  0  0  0  0  0
    3.9192   -1.1718    0.0000 C   0  0  0  0  0  0  0  0  0  0  0  0
    3.1818   -0.7992    0.0000 C   0  0  0  0  0  0  0  0  0  0  0  0
    3.1569    0.0238    0.0000 N   0  0  0  0  0  0  0  0  0  0  0  0
    3.8562    0.4581    0.0000 C   0  0  0  0  0  0  0  0  0  0  0  0
    2.4286    0.4144    0.0000 C   0  0  0  0  0  0  0  0  0  0  0  0
    1.7290   -0.0198    0.0000 C   0  0  0  0  0  0  0  0  0  0  0  0
    1.0009    0.3706    0.0000 C   0  0  0  0  0  0  0  0  0  0  0  0
    1.0188    1.1965    0.0000 O   0  0  0  0  0  0  0  0  0  0  0  0
    0.2809   -0.0281    0.0000 N   0  0  0  0  0  0  0  0  0  0  0  0
   -0.4247    0.4007    0.0000 C   0  0  0  0  0  0  0  0  0  0  0  0
   -0.0588    1.1414    0.0000 C   0  0  0  0  0  0  0  0  0  0  0  0
   -0.9157    1.0619    0.0000 C   0  0  0  0  0  0  0  0  0  0  0  0
   -0.6649    1.8505    0.0000 O   0  0  0  0  0  0  0  0  0  0  0  0
   -1.6968    0.8061    0.0000 N   0  0  0  0  0  0  0  0  0  0  0  0
   -2.4161    1.2119    0.0000 C   0  0  0  0  0  0  0  0  0  0  0  0
   -2.4182    2.0387    0.0000 C   0  0  0  0  0  0  0  0  0  0  0  0
   -3.1350    2.4478    0.0000 C   0  0  0  0  0  0  0  0  0  0  0  0
   -3.1396    3.2713    0.0000 C   0  0  0  0  0  0  0  0  0  0  0  0
   -3.8590    3.6771    0.0000 C   0  0  0  0  0  0  0  0  0  0  0  0
   -4.5709    3.2625    0.0000 C   0  0  0  0  0  0  0  0  0  0  0  0
   -4.5662    2.4391    0.0000 C   0  0  0  0  0  0  0  0  0  0  0  0
   -3.8496    2.0299    0.0000 C   0  0  0  0  0  0  0  0  0  0  0  0
   -3.1282    0.7975    0.0000 C   0  0  0  0  0  0  0  0  0  0  0  0
   -3.8449    1.2064    0.0000 O   0  0  0  0  0  0  0  0  0  0  0  0
   -3.1201   -0.0286    0.0000 N   0  0  0  0  0  0  0  0  0  0  0  0
   -3.7330   -0.5822    0.0000 C   0  0  0  0  0  0  0  0  0  0  0  0
   -3.3923   -1.3347    0.0000 C   0  0  0  0  0  0  0  0  0  0  0  0
   -2.5744   -1.2440    0.0000 C   0  0  0  0  0  0  0  0  0  0  0  0
   -2.4067   -0.4351    0.0000 C   0  0  0  0  0  0  0  0  0  0  0  0
   -1.6947   -0.0205    0.0000 C   0  0  0  0  0  0  0  0  0  0  0  0
   -1.6040   -0.8385    0.0000 O   0  0  0  0  0  0  0  0  0  0  0  0
   -0.9091   -0.2688    0.0000 O   0  0  0  0  0  0  0  0  0  0  0  0
  1  2  2  0
  2  3  1  0
  3  4  2  0
  4  5  1  0
  5  6  2  0
  6  7  1  0
  7  8  1  0
  8  9  1  0
  7 10  2  0
  3 10  1  0
 10 11  1  0
  9 11  2  0
 11 12  1  0
 13 12  1  6
  2 13  1  0
 13 14  1  0
 14 15  1  0
 14 16  1  0
 16 17  1  0
  1 17  1  0
 17 18  1  1
 18 19  2  0
 18 20  1  0
 21 20  1  0
 21 22  1  1
 21 23  1  0
 23 24  2  0
 23 25  1  0
 25 26  1  0
 26 27  1  6
 27 28  1  0
 28 29  2  0
 29 30  1  0
 30 31  2  0
 31 32  1  0
 32 33  2  0
 28 33  1  0
 26 34  1  0
 34 35  2  0
 34 36  1  0
 36 37  1  0
 37 38  1  0
 38 39  1  0
 40 39  1  6
 36 40  1  0
 40 41  1  0
 41 42  1  6
 25 41  1  0
 41 43  1  0
 21 43  1  0
M  END
$$$$
