791
     RDKit          2D

 15 15  0  0  0  0  0  0  0  0999 V2000
    1.6500   -0.3630    0.0000 Cl  0  0  0  0  0  0  0  0  0  0  0  0
    3.0791    2.1120    0.0000 Cl  0  0  0  0  0  0  0  0  0  0  0  0
    3.7935   -1.6005    0.0000 O   0  0  0  0  0  0  0  0  0  0  0  0
    6.6515   -1.6005    0.0000 O   0  0  0  0  0  0  0  0  0  0  0  0
    3.7935    0.0495    0.0000 N   0  0  0  0  0  0  0  0  0  0  0  0
    5.2224   -1.6005    0.0000 N   0  0  0  0  0  0  0  0  0  0  0  0
    5.9370   -0.3630    0.0000 N   0  0  0  0  0  0  0  0  0  0  0  0
    3.0791   -0.3630    0.0000 C   0  0  0  0  0  0  0  0  0  0  0  0
    3.7935    0.8745    0.0000 C   0  0  0  0  0  0  0  0  0  0  0  0
    4.5080   -0.3630    0.0000 C   0  0  0  0  0  0  0  0  0  0  0  0
    2.3645    0.0495    0.0000 C   0  0  0  0  0  0  0  0  0  0  0  0
    3.0791    1.2870    0.0000 C   0  0  0  0  0  0  0  0  0  0  0  0
    4.5080   -1.1880    0.0000 C   0  0  0  0  0  0  0  0  0  0  0  0
    5.2224    0.0495    0.0000 C   0  0  0  0  0  0  0  0  0  0  0  0
    5.9370   -1.1880    0.0000 C   0  0  0  0  0  0  0  0  0  0  0  0
  1 11  1  0
  2 12  1  0
  3 13  2  0
  4 15  2  0
  5  8  1  0
  5  9  1  0
  5 10  1  0
  6 13  1  0
  6 15  1  0
  7 14  1  0
  7 15  1  0
  8 11  1  0
  9 12  1  0
 10 13  1  0
 10 14  2  0
M  END
$$$$
