821
     RDKit          2D

 19 21  0  0  1  0  0  0  0  0999 V2000
    1.5842   -1.3784    0.0000 Cl  0  0  0  0  0  0  0  0  0  0  0  0
    7.9413   -0.2544    0.0000 O   0  0  0  0  0  0  0  0  0  0  0  0
    6.9253   -1.1762    0.0000 O   0  0  0  0  0  0  0  0  0  0  0  0
    3.8588    0.8874    0.0000 N   0  0  0  0  0  0  0  0  0  0  0  0
    4.2548   -0.3315    0.0000 C   0  0  0  0  0  0  0  0  0  0  0  0
    4.4997    0.4218    0.0000 C   0  0  0  0  0  0  0  0  0  0  0  0
    3.4628   -0.3315    0.0000 C   0  0  0  0  0  0  0  0  0  0  0  0
    5.8607   -0.0031    0.0000 C   0  0  0  0  0  0  0  0  0  0  0  0
    3.2180    0.4218    0.0000 C   0  0  0  0  0  0  0  0  0  0  0  0
    6.6348    0.1646    0.0000 C   0  0  0  0  0  0  0  0  0  0  0  0
    5.3039    0.6058    0.0000 C   0  0  0  0  0  0  0  0  0  0  0  0
    4.7974   -0.9531    0.0000 C   0  0  0  0  0  0  0  0  0  0  0  0
    5.6057   -0.7878    0.0000 C   0  0  0  0  0  0  0  0  0  0  0  0
    2.9203   -0.9531    0.0000 C   0  0  0  0  0  0  0  0  0  0  0  0
    2.4137    0.6058    0.0000 C   0  0  0  0  0  0  0  0  0  0  0  0
    6.8767    0.9188    0.0000 C   0  0  0  0  0  0  0  0  0  0  0  0
    2.1119   -0.7878    0.0000 C   0  0  0  0  0  0  0  0  0  0  0  0
    7.1672   -0.4220    0.0000 C   0  0  0  0  0  0  0  0  0  0  0  0
    1.8570   -0.0031    0.0000 C   0  0  0  0  0  0  0  0  0  0  0  0
  1 17  1  0
  2 18  1  0
  3 18  2  0
  4  6  1  0
  4  9  1  0
  5  6  2  0
  5  7  1  0
  5 12  1  0
  6 11  1  0
  7  9  2  0
  7 14  1  0
  8 10  1  0
  8 11  2  0
  8 13  1  0
  9 15  1  0
 10 16  1  0
 10 18  1  0
 12 13  2  0
 14 17  2  0
 15 19  2  0
 17 19  1  0
M  END
$$$$
