
     RDKit          2D

 12 12  0  0  0  0  0  0  0  0999 V2000
   -2.1434    0.2584    0.0000 C   0  0  0  0  0  0  0  0  0  0  0  0
   -1.7309   -1.0110    0.0000 S   0  0  0  0  0  0  0  0  0  0  0  0
   -2.8108   -0.2264    0.0000 C   0  0  0  0  0  0  0  0  0  0  0  0
   -2.5559   -1.0110    0.0000 S   0  0  0  0  0  0  0  0  0  0  0  0
   -1.4760   -0.2264    0.0000 C   0  0  0  0  0  0  0  0  0  0  0  0
   -0.7615    0.1860    0.0000 C   0  0  0  0  0  0  0  0  0  0  0  0
   -0.0470   -0.2264    0.0000 C   0  0  0  0  0  0  0  0  0  0  0  0
    0.6674    0.1860    0.0000 C   0  0  0  0  0  0  0  0  0  0  0  0
    1.3818   -0.2264    0.0000 C   0  0  0  0  0  0  0  0  0  0  0  0
    2.0963    0.1860    0.0000 C   0  0  0  0  0  0  0  0  0  0  0  0
    2.0963    1.0110    0.0000 O   0  0  0  0  0  0  0  0  0  0  0  0
    2.8108   -0.2264    0.0000 O   0  0  0  0  0  0  0  0  0  0  0  0
  5  1  1  0
  5  2  1  0
  1  3  1  0
  2  4  1  0
  3  4  1  0
  5  6  1  1
  6  7  1  0
  7  8  1  0
  8  9  1  0
  9 10  1  0
 10 12  1  0
 10 11  2  0
M  END
$$$$
