967
     RDKit          2D

 22 25  0  0  0  0  0  0  0  0999 V2000
    1.6500    1.6844    0.0000 Cl  0  0  0  0  0  0  0  0  0  0  0  0
    4.8159   -1.8854    0.0000 N   0  0  0  0  0  0  0  0  0  0  0  0
    6.1800    0.3534    0.0000 N   0  0  0  0  0  0  0  0  0  0  0  0
    4.8159   -0.2354    0.0000 C   0  0  0  0  0  0  0  0  0  0  0  0
    4.8159    0.5896    0.0000 C   0  0  0  0  0  0  0  0  0  0  0  0
    4.1014   -0.6479    0.0000 C   0  0  0  0  0  0  0  0  0  0  0  0
    5.5303   -0.6479    0.0000 C   0  0  0  0  0  0  0  0  0  0  0  0
    4.1014   -1.4729    0.0000 C   0  0  0  0  0  0  0  0  0  0  0  0
    5.5303   -1.4729    0.0000 C   0  0  0  0  0  0  0  0  0  0  0  0
    4.0726    0.9476    0.0000 C   0  0  0  0  0  0  0  0  0  0  0  0
    5.5592    0.9476    0.0000 C   0  0  0  0  0  0  0  0  0  0  0  0
    4.4034    2.3969    0.0000 C   0  0  0  0  0  0  0  0  0  0  0  0
    3.8890    1.7519    0.0000 C   0  0  0  0  0  0  0  0  0  0  0  0
    5.2284    2.3969    0.0000 C   0  0  0  0  0  0  0  0  0  0  0  0
    5.7427    1.7519    0.0000 C   0  0  0  0  0  0  0  0  0  0  0  0
    3.4517    0.3534    0.0000 C   0  0  0  0  0  0  0  0  0  0  0  0
    3.0718    2.0178    0.0000 C   0  0  0  0  0  0  0  0  0  0  0  0
    6.5599    2.0178    0.0000 C   0  0  0  0  0  0  0  0  0  0  0  0
    2.6286    0.6004    0.0000 C   0  0  0  0  0  0  0  0  0  0  0  0
    2.4374    1.4382    0.0000 C   0  0  0  0  0  0  0  0  0  0  0  0
    7.1943    1.4381    0.0000 C   0  0  0  0  0  0  0  0  0  0  0  0
    7.0031    0.6004    0.0000 C   0  0  0  0  0  0  0  0  0  0  0  0
  1 20  1  0
  2  8  1  0
  2  9  1  0
  3 11  2  0
  3 22  1  0
  4  5  2  0
  4  6  1  0
  4  7  1  0
  5 10  1  0
  5 11  1  0
  6  8  1  0
  7  9  1  0
 10 13  2  0
 10 16  1  0
 11 15  1  0
 12 13  1  0
 12 14  1  0
 13 17  1  0
 14 15  1  0
 15 18  2  0
 16 19  2  0
 17 20  2  0
 18 21  1  0
 19 20  1  0
 21 22  2  0
M  END
$$$$
