609
     RDKit          2D

 11 11  0  0  0  0  0  0  0  0999 V2000
    2.3644    1.6005    0.0000 S   0  0  0  0  0  0  0  0  0  0  0  0
    3.0790   -1.2870    0.0000 N   0  0  0  0  0  0  0  0  0  0  0  0
    3.7934    1.6005    0.0000 N   0  0  0  0  0  0  0  0  0  0  0  0
    1.6500   -1.2870    0.0000 C   0  0  0  0  0  0  0  0  0  0  0  0
    2.3644   -0.8745    0.0000 C   0  0  0  0  0  0  0  0  0  0  0  0
    2.3644   -0.0495    0.0000 C   0  0  0  0  0  0  0  0  0  0  0  0
    3.0790    0.3630    0.0000 C   0  0  0  0  0  0  0  0  0  0  0  0
    1.6500   -2.1120    0.0000 C   0  0  0  0  0  0  0  0  0  0  0  0
    3.7934   -0.0495    0.0000 C   0  0  0  0  0  0  0  0  0  0  0  0
    3.7934   -0.8745    0.0000 C   0  0  0  0  0  0  0  0  0  0  0  0
    3.0790    1.1880    0.0000 C   0  0  0  0  0  0  0  0  0  0  0  0
  1 11  2  0
  2  5  2  0
  2 10  1  0
  3 11  1  0
  4  5  1  0
  4  8  1  0
  5  6  1  0
  6  7  2  0
  7  9  1  0
  7 11  1  0
  9 10  2  0
M  END
$$$$
