142
     RDKit          2D

 10  9  0  0  1  0  0  0  0  0999 V2000
    4.5079    0.8745    0.0000 O   0  0  0  0  0  0  0  0  0  0  0  0
    1.6500   -1.6005    0.0000 O   0  0  0  0  0  0  0  0  0  0  0  0
    3.7935    2.1120    0.0000 O   0  0  0  0  0  0  0  0  0  0  0  0
    3.0790   -1.6005    0.0000 O   0  0  0  0  0  0  0  0  0  0  0  0
    2.3645    1.2870    0.0000 N   0  0  0  0  0  0  0  0  0  0  0  0
    3.0790    0.0495    0.0000 C   0  0  0  0  0  0  0  0  0  0  0  0
    3.0790    0.8745    0.0000 C   0  0  0  0  0  0  0  0  0  0  0  0
    2.3645   -0.3630    0.0000 C   0  0  0  0  0  0  0  0  0  0  0  0
    3.7935    1.2870    0.0000 C   0  0  0  0  0  0  0  0  0  0  0  0
    2.3645   -1.1880    0.0000 C   0  0  0  0  0  0  0  0  0  0  0  0
  1  9  1  0
  2 10  1  0
  3  9  2  0
  4 10  2  0
  7  5  1  6
  6  7  1  0
  6  8  1  0
  7  9  1  0
  8 10  1  0
M  END
$$$$
