
     RDKit          2D

 35 36  0  0  1  0  0  0  0  0999 V2000
   -0.3680   10.9468    0.0000 C   0  0  0  0  0  0  0  0  0  0  0  0
    0.8695   11.6613    0.0000 C   0  0  0  0  0  0  0  0  0  0  0  0
   -0.1174    7.9784    0.0000 C   0  0  0  0  0  0  0  0  0  0  0  0
    0.5971    6.7409    0.0000 C   0  0  0  0  0  0  0  0  0  0  0  0
    4.1695   11.2784    0.0000 C   0  0  0  0  0  0  0  0  0  0  0  0
    5.5984   11.2784    0.0000 C   0  0  0  0  0  0  0  0  0  0  0  0
    7.6248   13.0299    0.0000 C   0  0  0  0  0  0  0  0  0  0  0  0
    4.9310   12.5883    0.0000 C   0  0  0  0  0  0  0  0  0  0  0  0
    2.9320    9.5179    0.0000 C   0  0  0  0  0  0  0  0  0  0  0  0
    3.4550    7.5659    0.0000 C   0  0  0  0  0  0  0  0  0  0  0  0
    4.1695    9.6284    0.0000 C   0  0  0  0  0  0  0  0  0  0  0  0
    0.4570   10.9468    0.0000 C   0  0  0  0  0  0  0  0  0  0  0  0
    0.5971    7.5659    0.0000 C   0  0  0  0  0  0  0  0  0  0  0  0
    4.8839   10.8659    0.0000 C   0  0  0  0  0  0  0  0  0  0  0  0
    6.0109   13.3729    0.0000 C   0  0  0  0  0  0  0  0  0  0  0  0
    6.5629   13.9860    0.0000 C   0  0  0  0  0  0  0  0  0  0  0  0
    6.2658   12.5883    0.0000 C   0  0  0  0  0  0  0  0  0  0  0  0
    1.6945   10.2323    0.0000 C   0  0  0  0  0  0  0  0  0  0  0  0
    2.0260    7.5659    0.0000 C   0  0  0  0  0  0  0  0  0  0  0  0
    6.3080   14.7707    0.0000 N   0  0  0  0  0  0  0  0  0  0  0  0
    7.3699   13.8145    0.0000 N   0  0  0  0  0  0  0  0  0  0  0  0
    7.0728   12.4168    0.0000 N   0  0  0  0  0  0  0  0  0  0  0  0
    5.1859   13.3729    0.0000 N   0  0  0  0  0  0  0  0  0  0  0  0
    5.5984   12.1034    0.0000 N   0  0  0  0  0  0  0  0  0  0  0  0
    2.1070   10.9468    0.0000 O   0  0  0  0  0  0  0  0  0  0  0  0
    2.0260    6.7409    0.0000 O   0  0  0  0  0  0  0  0  0  0  0  0
    4.9945    8.8034    0.0000 O   0  0  0  0  0  0  0  0  0  0  0  0
    2.1070    9.5179    0.0000 O   0  0  0  0  0  0  0  0  0  0  0  0
    2.7405    7.9784    0.0000 O   0  0  0  0  0  0  0  0  0  0  0  0
    4.8839   10.0409    0.0000 O   0  0  0  0  0  0  0  0  0  0  0  0
    3.3445    8.8034    0.0000 O   0  0  0  0  0  0  0  0  0  0  0  0
    4.1695    7.9784    0.0000 O   0  0  0  0  0  0  0  0  0  0  0  0
    0.8695   10.2323    0.0000 O   0  0  0  0  0  0  0  0  0  0  0  0
    1.3116    7.9784    0.0000 O   0  0  0  0  0  0  0  0  0  0  0  0
    4.1695    8.8034    0.0000 P   0  0  0  0  0  0  0  0  0  0  0  0
 12  1  1  0
 12  2  1  0
 13  3  1  0
 13  4  1  0
 14  5  1  6
 14  6  1  0
 16 15  2  0
 17 15  1  0
 20 16  1  0
 21  7  2  0
 21 16  1  0
 22  7  1  0
 22 17  2  0
 23  8  2  0
 23 15  1  0
 24  6  1  0
 24  8  1  0
 24 17  1  0
 25 18  2  0
 26 19  2  0
 28  9  1  0
 28 18  1  0
 29 10  1  0
 29 19  1  0
 30 11  1  0
 30 14  1  0
 31  9  1  0
 32 10  1  0
 33 12  1  0
 33 18  1  0
 34 13  1  0
 34 19  1  0
 35 11  1  0
 35 27  2  0
 35 31  1  0
 35 32  1  0
M  END
$$$$
