
     RDKit          2D

 39 41  0  0  0  0  0  0  0  0999 V2000
    1.7846   -0.2569    0.0000 N   0  0  0  0  0  0  0  0  0  0  0  0
    1.7846    0.5868    0.0000 C   0  0  0  0  0  0  0  0  0  0  0  0
    2.4928   -0.7081    0.0000 C   0  0  0  0  0  0  0  0  0  0  0  0
    0.3880    0.5868    0.0000 P   0  0  0  0  0  0  0  0  0  0  0  0
    1.1106    0.9796    0.0000 C   0  0  0  0  0  0  0  0  0  0  0  0
    1.1688   -0.7371    0.0000 C   0  0  0  0  0  0  0  0  0  0  0  0
   -0.3975    0.9796    0.0000 O   0  0  0  0  0  0  0  0  0  0  0  0
   -1.1299    0.5868    0.0000 C   0  0  0  0  0  0  0  0  0  0  0  0
    2.2599   -1.5373    0.0000 C   0  0  0  0  0  0  0  0  0  0  0  0
    3.2347   -0.2715    0.0000 C   0  0  0  0  0  0  0  0  0  0  0  0
    1.3919   -1.5373    0.0000 C   0  0  0  0  0  0  0  0  0  0  0  0
   -1.8671    0.9796    0.0000 O   0  0  0  0  0  0  0  0  0  0  0  0
   -2.5800    0.5868    0.0000 C   0  0  0  0  0  0  0  0  0  0  0  0
    0.3880   -0.2569    0.0000 O   0  0  0  0  0  0  0  0  0  0  0  0
    2.5072    1.0087    0.0000 O   0  0  0  0  0  0  0  0  0  0  0  0
    3.9525   -0.7081    0.0000 O   0  0  0  0  0  0  0  0  0  0  0  0
    3.2347    0.4558    0.0000 O   0  0  0  0  0  0  0  0  0  0  0  0
   -2.5800   -0.1987    0.0000 O   0  0  0  0  0  0  0  0  0  0  0  0
    0.6789   -1.9835    0.0000 C   0  0  0  0  0  0  0  0  0  0  0  0
   -1.1299   -0.3151    0.0000 C   0  0  0  0  0  0  0  0  0  0  0  0
    0.3880    1.4888    0.0000 C   0  0  0  0  0  0  0  0  0  0  0  0
    2.5267    2.7401    0.0000 C   0  0  0  0  0  0  0  0  0  0  0  0
   -3.2929    1.0087    0.0000 C   0  0  0  0  0  0  0  0  0  0  0  0
    0.0048   -1.5373    0.0000 C   0  0  0  0  0  0  0  0  0  0  0  0
    0.6789   -2.7595    0.0000 C   0  0  0  0  0  0  0  0  0  0  0  0
   -0.4267   -0.7081    0.0000 C   0  0  0  0  0  0  0  0  0  0  0  0
   -1.8429   -0.6934    0.0000 C   0  0  0  0  0  0  0  0  0  0  0  0
    1.8138    3.1523    0.0000 C   0  0  0  0  0  0  0  0  0  0  0  0
    3.2833    3.0892    0.0000 C   0  0  0  0  0  0  0  0  0  0  0  0
    2.5267    1.9108    0.0000 C   0  0  0  0  0  0  0  0  0  0  0  0
    1.1106    1.9108    0.0000 C   0  0  0  0  0  0  0  0  0  0  0  0
    1.1106    2.7401    0.0000 C   0  0  0  0  0  0  0  0  0  0  0  0
   -4.0107    0.6014    0.0000 C   0  0  0  0  0  0  0  0  0  0  0  0
   -0.6886   -1.9835    0.0000 C   0  0  0  0  0  0  0  0  0  0  0  0
   -0.0193   -3.1523    0.0000 C   0  0  0  0  0  0  0  0  0  0  0  0
    4.0107    2.7158    0.0000 C   0  0  0  0  0  0  0  0  0  0  0  0
    3.2396    1.5179    0.0000 C   0  0  0  0  0  0  0  0  0  0  0  0
    4.0107    1.9108    0.0000 C   0  0  0  0  0  0  0  0  0  0  0  0
   -0.6886   -2.7595    0.0000 C   0  0  0  0  0  0  0  0  0  0  0  0
  2  1  1  0
  3  1  1  0
  4  5  1  6
  5  2  1  0
  6  1  1  0
  4  7  1  0
  8  7  1  1
  9  3  1  0
  3 10  1  6
 11  6  1  0
 12  8  1  0
 13 12  1  0
 14  4  2  0
 15  2  2  0
 16 10  1  0
 17 10  2  0
 18 13  2  0
 11 19  1  1
  8 20  1  0
 22 28  1  0
 23 13  1  0
 24 19  1  0
 25 19  1  0
 26 20  1  0
 27 20  1  0
 28 32  1  0
 29 22  2  0
 30 22  1  0
 31 21  1  0
 32 31  1  0
 33 23  1  0
 34 24  1  0
 35 25  1  0
 36 29  1  0
 37 30  2  0
 38 36  2  0
 39 34  1  0
  9 11  1  0
 39 35  1  0
 38 37  1  0
  4 21  1  0
M  END
$$$$
