699
     RDKit          2D

 31 35  0  0  1  0  0  0  0  0999 V2000
    3.7918    4.1206    0.0000 Br  0  0  0  0  0  0  0  0  0  0  0  0
    3.8506   -1.6944    0.0000 O   0  0  0  0  0  0  0  0  0  0  0  0
    3.0885    1.2303    0.0000 O   0  0  0  0  0  0  0  0  0  0  0  0
    1.6596    1.2249    0.0000 O   0  0  0  0  0  0  0  0  0  0  0  0
    5.2928   -0.0101    0.0000 N   0  0  0  0  0  0  0  0  0  0  0  0
    6.2679   -3.4061    0.0000 N   0  0  0  0  0  0  0  0  0  0  0  0
    1.6500    3.6998    0.0000 N   0  0  0  0  0  0  0  0  0  0  0  0
    4.5651   -1.2819    0.0000 C   0  0  0  0  0  0  0  0  0  0  0  0
    5.2796   -0.8694    0.0000 C   0  0  0  0  0  0  0  0  0  0  0  0
    3.8143   -0.8637    0.0000 C   0  0  0  0  0  0  0  0  0  0  0  0
    3.8077   -0.0044    0.0000 C   0  0  0  0  0  0  0  0  0  0  0  0
    5.9940   -1.2819    0.0000 C   0  0  0  0  0  0  0  0  0  0  0  0
    4.5651   -2.1069    0.0000 C   0  0  0  0  0  0  0  0  0  0  0  0
    4.5519    0.4253    0.0000 C   0  0  0  0  0  0  0  0  0  0  0  0
    5.2796   -2.5194    0.0000 C   0  0  0  0  0  0  0  0  0  0  0  0
    5.9940   -2.1069    0.0000 C   0  0  0  0  0  0  0  0  0  0  0  0
    3.0917    0.4053    0.0000 C   0  0  0  0  0  0  0  0  0  0  0  0
    5.2928   -3.3786    0.0000 C   0  0  0  0  0  0  0  0  0  0  0  0
    6.0120    0.3941    0.0000 C   0  0  0  0  0  0  0  0  0  0  0  0
    3.8143   -2.5250    0.0000 C   0  0  0  0  0  0  0  0  0  0  0  0
    6.6021   -2.6572    0.0000 C   0  0  0  0  0  0  0  0  0  0  0  0
    4.5519   -3.8140    0.0000 C   0  0  0  0  0  0  0  0  0  0  0  0
    3.8077   -3.3843    0.0000 C   0  0  0  0  0  0  0  0  0  0  0  0
    3.1362   -1.2819    0.0000 C   0  0  0  0  0  0  0  0  0  0  0  0
    6.6804   -4.1206    0.0000 C   0  0  0  0  0  0  0  0  0  0  0  0
    2.3725    1.6401    0.0000 C   0  0  0  0  0  0  0  0  0  0  0  0
    2.3692    2.4651    0.0000 C   0  0  0  0  0  0  0  0  0  0  0  0
    3.0821    2.8803    0.0000 C   0  0  0  0  0  0  0  0  0  0  0  0
    1.6532    2.8748    0.0000 C   0  0  0  0  0  0  0  0  0  0  0  0
    3.0789    3.7053    0.0000 C   0  0  0  0  0  0  0  0  0  0  0  0
    2.3629    4.1151    0.0000 C   0  0  0  0  0  0  0  0  0  0  0  0
  1 30  1  0
  8  2  1  6
  2 24  1  0
  3 17  1  0
  3 26  1  0
  4 26  2  0
  5  9  1  0
  5 14  1  0
  5 19  1  0
  6 18  1  0
  6 21  1  0
  6 25  1  0
  7 29  2  0
  7 31  1  0
  8  9  1  0
  8 10  1  0
  8 13  1  0
  9 12  1  6
 10 11  1  0
 11 14  1  0
 11 17  1  1
 12 16  1  0
 13 15  2  0
 13 20  1  0
 15 16  1  0
 15 18  1  0
 16 21  2  0
 18 22  2  0
 20 23  2  0
 22 23  1  0
 26 27  1  0
 27 28  2  0
 27 29  1  0
 28 30  1  0
 30 31  2  0
M  END
$$$$
