975
     RDKit          2D

 36 39  0  0  0  0  0  0  0  0999 V2000
   10.7229    0.4549    0.0000 O   0  0  0  0  0  0  0  0  0  0  0  0
    9.2844    2.9244    0.0000 O   0  0  0  0  0  0  0  0  0  0  0  0
    3.5220   -2.8734    0.0000 O   0  0  0  0  0  0  0  0  0  0  0  0
    2.0930   -0.3983    0.0000 O   0  0  0  0  0  0  0  0  0  0  0  0
    7.1079   -1.6644    0.0000 N   0  0  0  0  0  0  0  0  0  0  0  0
    5.6655    1.6642    0.0000 N   0  0  0  0  0  0  0  0  0  0  0  0
    7.8650   -0.4155    0.0000 N   0  0  0  0  0  0  0  0  0  0  0  0
    4.9509    0.4267    0.0000 N   0  0  0  0  0  0  0  0  0  0  0  0
    7.1174    0.8678    0.0000 N   0  0  0  0  0  0  0  0  0  0  0  0
    5.6655   -0.8108    0.0000 N   0  0  0  0  0  0  0  0  0  0  0  0
    8.5779    0.8592    0.0000 N   0  0  0  0  0  0  0  0  0  0  0  0
    4.2365   -0.8108    0.0000 N   0  0  0  0  0  0  0  0  0  0  0  0
    6.3887   -2.0686    0.0000 C   0  0  0  0  0  0  0  0  0  0  0  0
    7.8176   -2.0851    0.0000 C   0  0  0  0  0  0  0  0  0  0  0  0
    6.3799    2.0767    0.0000 C   0  0  0  0  0  0  0  0  0  0  0  0
    4.9509    2.0767    0.0000 C   0  0  0  0  0  0  0  0  0  0  0  0
    6.3792   -2.8935    0.0000 C   0  0  0  0  0  0  0  0  0  0  0  0
    7.8081   -2.9101    0.0000 C   0  0  0  0  0  0  0  0  0  0  0  0
    6.3799    2.9018    0.0000 C   0  0  0  0  0  0  0  0  0  0  0  0
    4.9509    2.9018    0.0000 C   0  0  0  0  0  0  0  0  0  0  0  0
    7.0888   -3.3143    0.0000 C   0  0  0  0  0  0  0  0  0  0  0  0
    5.6655    3.3143    0.0000 C   0  0  0  0  0  0  0  0  0  0  0  0
    7.1174   -0.8394    0.0000 C   0  0  0  0  0  0  0  0  0  0  0  0
    5.6655    0.8392    0.0000 C   0  0  0  0  0  0  0  0  0  0  0  0
    6.3799    0.4267    0.0000 C   0  0  0  0  0  0  0  0  0  0  0  0
    6.3799   -0.3983    0.0000 C   0  0  0  0  0  0  0  0  0  0  0  0
    7.8650    0.4439    0.0000 C   0  0  0  0  0  0  0  0  0  0  0  0
    4.9509   -0.3983    0.0000 C   0  0  0  0  0  0  0  0  0  0  0  0
    9.2939    0.4494    0.0000 C   0  0  0  0  0  0  0  0  0  0  0  0
    8.5747    1.6842    0.0000 C   0  0  0  0  0  0  0  0  0  0  0  0
    4.2365   -1.6358    0.0000 C   0  0  0  0  0  0  0  0  0  0  0  0
    3.5220   -0.3983    0.0000 C   0  0  0  0  0  0  0  0  0  0  0  0
   10.0068    0.8647    0.0000 C   0  0  0  0  0  0  0  0  0  0  0  0
    9.2876    2.0994    0.0000 C   0  0  0  0  0  0  0  0  0  0  0  0
    3.5220   -2.0484    0.0000 C   0  0  0  0  0  0  0  0  0  0  0  0
    2.8075   -0.8108    0.0000 C   0  0  0  0  0  0  0  0  0  0  0  0
  1 33  1  0
  2 34  1  0
  3 35  1  0
  4 36  1  0
  5 13  1  0
  5 14  1  0
  5 23  1  0
  6 15  1  0
  6 16  1  0
  6 24  1  0
  7 23  2  0
  7 27  1  0
  8 24  1  0
  8 28  2  0
  9 25  1  0
  9 27  2  0
 10 26  2  0
 10 28  1  0
 11 27  1  0
 11 29  1  0
 11 30  1  0
 12 28  1  0
 12 31  1  0
 12 32  1  0
 13 17  1  0
 14 18  1  0
 15 19  1  0
 16 20  1  0
 17 21  1  0
 18 21  1  0
 19 22  1  0
 20 22  1  0
 23 26  1  0
 24 25  2  0
 25 26  1  0
 29 33  1  0
 30 34  1  0
 31 35  1  0
 32 36  1  0
M  END
$$$$
