473
     RDKit          2D

 19 20  0  0  1  0  0  0  0  0999 V2000
    3.0787   -0.4125    0.0000 O   0  0  0  0  0  0  0  0  0  0  0  0
    1.6498   -0.4125    0.0000 O   0  0  0  0  0  0  0  0  0  0  0  0
    3.7930    1.6498    0.0000 N   0  0  0  0  0  0  0  0  0  0  0  0
    4.5075    2.0623    0.0000 C   0  0  0  0  0  0  0  0  0  0  0  0
    5.2218    1.6498    0.0000 C   0  0  0  0  0  0  0  0  0  0  0  0
    4.5075    2.8873    0.0000 C   0  0  0  0  0  0  0  0  0  0  0  0
    5.9363    2.0623    0.0000 C   0  0  0  0  0  0  0  0  0  0  0  0
    5.2218    3.2997    0.0000 C   0  0  0  0  0  0  0  0  0  0  0  0
    5.9363    2.8873    0.0000 C   0  0  0  0  0  0  0  0  0  0  0  0
    3.7930    0.8249    0.0000 C   0  0  0  0  0  0  0  0  0  0  0  0
    3.0787    0.4125    0.0000 C   0  0  0  0  0  0  0  0  0  0  0  0
    2.3642    0.8249    0.0000 C   0  0  0  0  0  0  0  0  0  0  0  0
    2.3642   -0.8249    0.0000 C   0  0  0  0  0  0  0  0  0  0  0  0
    2.3642   -1.6498    0.0000 C   0  0  0  0  0  0  0  0  0  0  0  0
    3.0787   -2.0623    0.0000 C   0  0  0  0  0  0  0  0  0  0  0  0
    1.6498   -2.0623    0.0000 C   0  0  0  0  0  0  0  0  0  0  0  0
    3.0787   -2.8873    0.0000 C   0  0  0  0  0  0  0  0  0  0  0  0
    1.6498   -2.8873    0.0000 C   0  0  0  0  0  0  0  0  0  0  0  0
    2.3642   -3.2997    0.0000 C   0  0  0  0  0  0  0  0  0  0  0  0
  1 11  1  0
  1 13  1  0
  2 13  2  0
  3  4  1  0
  3 10  1  0
  4  5  1  0
  4  6  1  0
  5  7  1  0
  6  8  1  0
  7  9  1  0
  8  9  1  0
 10 11  1  0
 11 12  1  0
 13 14  1  0
 14 15  2  0
 14 16  1  0
 15 17  1  0
 16 18  2  0
 17 19  2  0
 18 19  1  0
M  END
$$$$
