233
     RDKit          2D

 11 11  0  0  0  0  0  0  0  0999 V2000
    2.0930    0.4909    0.0000 O   0  0  0  0  0  0  0  0  0  0  0  0
    4.2365    1.7284    0.0000 O   0  0  0  0  0  0  0  0  0  0  0  0
    2.8075    1.7284    0.0000 O   0  0  0  0  0  0  0  0  0  0  0  0
    3.5220   -1.9842    0.0000 N   0  0  0  0  0  0  0  0  0  0  0  0
    3.5220    0.4909    0.0000 C   0  0  0  0  0  0  0  0  0  0  0  0
    2.8075    0.0784    0.0000 C   0  0  0  0  0  0  0  0  0  0  0  0
    3.5220   -1.1592    0.0000 C   0  0  0  0  0  0  0  0  0  0  0  0
    2.8075   -0.7466    0.0000 C   0  0  0  0  0  0  0  0  0  0  0  0
    4.2365    0.0784    0.0000 C   0  0  0  0  0  0  0  0  0  0  0  0
    4.2365   -0.7466    0.0000 C   0  0  0  0  0  0  0  0  0  0  0  0
    3.5220    1.3159    0.0000 C   0  0  0  0  0  0  0  0  0  0  0  0
  1  6  1  0
  2 11  1  0
  3 11  2  0
  4  7  1  0
  5  6  2  0
  5  9  1  0
  5 11  1  0
  6  8  1  0
  7  8  2  0
  7 10  1  0
  9 10  2  0
M  END
$$$$
