
     RDKit          2D

 21 23  0  0  0  0  0  0  0  0999 V2000
    2.5864    1.1575    0.0000 N   0  0  0  0  0  0  0  0  0  0  0  0
    1.8720    1.5700    0.0000 C   0  0  0  0  0  0  0  0  0  0  0  0
    3.3009    1.5700    0.0000 C   0  0  0  0  0  0  0  0  0  0  0  0
    1.8720    2.3950    0.0000 C   0  0  0  0  0  0  0  0  0  0  0  0
    3.3009    2.3950    0.0000 C   0  0  0  0  0  0  0  0  0  0  0  0
    2.5864    2.8075    0.0000 C   0  0  0  0  0  0  0  0  0  0  0  0
    2.1739    0.4430    0.0000 C   0  0  0  0  0  0  0  0  0  0  0  0
    2.9989    0.4430    0.0000 C   0  0  0  0  0  0  0  0  0  0  0  0
    2.5864    3.6326    0.0000 C   0  0  0  0  0  0  0  0  0  0  0  0
    3.3009    4.0451    0.0000 C   0  0  0  0  0  0  0  0  0  0  0  0
    1.8720    4.0451    0.0000 C   0  0  0  0  0  0  0  0  0  0  0  0
    3.3009    4.8701    0.0000 C   0  0  0  0  0  0  0  0  0  0  0  0
    1.1575    3.6326    0.0000 C   0  0  0  0  0  0  0  0  0  0  0  0
    4.0154    3.6326    0.0000 C   0  0  0  0  0  0  0  0  0  0  0  0
    1.8720    4.8701    0.0000 C   0  0  0  0  0  0  0  0  0  0  0  0
    4.0154    5.2826    0.0000 C   0  0  0  0  0  0  0  0  0  0  0  0
    0.4430    4.0451    0.0000 C   0  0  0  0  0  0  0  0  0  0  0  0
    4.7299    4.0451    0.0000 C   0  0  0  0  0  0  0  0  0  0  0  0
    1.1575    5.2826    0.0000 C   0  0  0  0  0  0  0  0  0  0  0  0
    4.7299    4.8701    0.0000 C   0  0  0  0  0  0  0  0  0  0  0  0
    0.4430    4.8701    0.0000 C   0  0  0  0  0  0  0  0  0  0  0  0
  1  2  1  0
  1  3  1  0
  1  7  1  0
  1  8  1  0
  2  4  1  0
  3  5  1  0
  4  6  1  0
  5  6  1  0
  6  9  2  0
  9 10  1  0
  9 11  1  0
 10 12  2  0
 10 14  1  0
 11 13  2  0
 11 15  1  0
 12 16  1  0
 13 17  1  0
 14 18  2  0
 15 19  2  0
 16 20  2  0
 17 21  2  0
 18 20  1  0
 19 21  1  0
M  CHG  1   1   1
M  END
$$$$
