
     RDKit          2D

 10 10  0  0  0  0  0  0  0  0999 V2000
   -0.1480    0.2044    0.0000 C   0  0  0  0  0  0  0  0  0  0  0  0
   -0.1480   -0.6206    0.0000 C   0  0  0  0  0  0  0  0  0  0  0  0
   -0.8625    0.6169    0.0000 C   0  0  0  0  0  0  0  0  0  0  0  0
    0.5665    0.6169    0.0000 C   0  0  0  0  0  0  0  0  0  0  0  0
   -0.8625   -1.0331    0.0000 C   0  0  0  0  0  0  0  0  0  0  0  0
   -1.5770    0.2044    0.0000 C   0  0  0  0  0  0  0  0  0  0  0  0
    1.2809    0.2044    0.0000 C   0  0  0  0  0  0  0  0  0  0  0  0
   -1.5770   -0.6206    0.0000 C   0  0  0  0  0  0  0  0  0  0  0  0
    1.2809   -0.6206    0.0000 C   0  0  0  0  0  0  0  0  0  0  0  0
    1.9954    0.6169    0.0000 N   0  0  0  0  0  0  0  0  0  0  0  0
  1  2  2  0
  1  3  1  0
  1  4  1  0
  2  5  1  0
  3  6  2  0
  4  7  1  0
  5  8  2  0
  7  9  1  0
  7 10  1  0
  6  8  1  0
M  END
$$$$
