465
     RDKit          2D

 19 21  0  0  1  0  0  0  0  0999 V2000
    6.9550   -1.8560    0.0000 O   0  0  0  0  0  0  0  0  0  0  0  0
    5.5967   -2.2999    0.0000 O   0  0  0  0  0  0  0  0  0  0  0  0
    4.6232    1.8275    0.0000 O   0  0  0  0  0  0  0  0  0  0  0  0
    5.1107    0.1748    0.0000 N   0  0  0  0  0  0  0  0  0  0  0  0
    5.8914   -0.9016    0.0000 C   0  0  0  0  0  0  0  0  0  0  0  0
    6.3729   -0.2377    0.0000 C   0  0  0  0  0  0  0  0  0  0  0  0
    5.8914    0.4263    0.0000 C   0  0  0  0  0  0  0  0  0  0  0  0
    5.1107   -0.6502    0.0000 C   0  0  0  0  0  0  0  0  0  0  0  0
    4.3261    0.4298    0.0000 C   0  0  0  0  0  0  0  0  0  0  0  0
    4.3261   -0.9052    0.0000 C   0  0  0  0  0  0  0  0  0  0  0  0
    3.8411   -0.2377    0.0000 C   0  0  0  0  0  0  0  0  0  0  0  0
    6.1477   -1.6858    0.0000 C   0  0  0  0  0  0  0  0  0  0  0  0
    4.0711    1.2145    0.0000 C   0  0  0  0  0  0  0  0  0  0  0  0
    3.2641    1.3860    0.0000 C   0  0  0  0  0  0  0  0  0  0  0  0
    2.7121    0.7729    0.0000 C   0  0  0  0  0  0  0  0  0  0  0  0
    3.0092    2.1707    0.0000 C   0  0  0  0  0  0  0  0  0  0  0  0
    1.9050    0.9444    0.0000 C   0  0  0  0  0  0  0  0  0  0  0  0
    2.2021    2.3422    0.0000 C   0  0  0  0  0  0  0  0  0  0  0  0
    1.6501    1.7290    0.0000 C   0  0  0  0  0  0  0  0  0  0  0  0
  1 12  1  0
  2 12  2  0
  3 13  2  0
  4  7  1  0
  4  8  1  0
  4  9  1  0
  5  6  1  0
  5  8  1  0
  5 12  1  0
  6  7  1  0
  8 10  2  0
  9 11  2  0
  9 13  1  0
 10 11  1  0
 13 14  1  0
 14 15  2  0
 14 16  1  0
 15 17  1  0
 16 18  2  0
 17 19  2  0
 18 19  1  0
M  END
$$$$
