996
     RDKit          2D

 12 12  0  0  0  0  0  0  0  0999 V2000
    4.7934    1.5395    0.0000 O   0  0  0  0  0  0  0  0  0  0  0  0
    4.7934    0.1106    0.0000 O   0  0  0  0  0  0  0  0  0  0  0  0
    1.9058    0.8250    0.0000 N   0  0  0  0  0  0  0  0  0  0  0  0
    3.1433    0.1106    0.0000 C   0  0  0  0  0  0  0  0  0  0  0  0
    2.4289   -0.3020    0.0000 C   0  0  0  0  0  0  0  0  0  0  0  0
    3.8578   -0.3020    0.0000 C   0  0  0  0  0  0  0  0  0  0  0  0
    2.4289   -1.1270    0.0000 C   0  0  0  0  0  0  0  0  0  0  0  0
    3.8578   -1.1270    0.0000 C   0  0  0  0  0  0  0  0  0  0  0  0
    3.1433   -1.5395    0.0000 C   0  0  0  0  0  0  0  0  0  0  0  0
    3.5558    0.8250    0.0000 C   0  0  0  0  0  0  0  0  0  0  0  0
    2.7308    0.8250    0.0000 C   0  0  0  0  0  0  0  0  0  0  0  0
    4.3808    0.8250    0.0000 C   0  0  0  0  0  0  0  0  0  0  0  0
  1 12  1  0
  2 12  2  0
  3 11  1  0
  4  5  1  0
  4  6  1  0
  4 10  1  0
  4 11  1  0
  5  7  1  0
  6  8  1  0
  7  9  1  0
  8  9  1  0
 10 12  1  0
M  END
$$$$
