617
     RDKit          2D

 11 11  0  0  1  0  0  0  0  0999 V2000
    2.6897    0.5163    0.0000 O   0  0  0  0  0  0  0  0  0  0  0  0
    4.5543   -0.5232    0.0000 O   0  0  0  0  0  0  0  0  0  0  0  0
    1.6501   -0.5232    0.0000 O   0  0  0  0  0  0  0  0  0  0  0  0
    3.1023   -0.7533    0.0000 N   0  0  0  0  0  0  0  0  0  0  0  0
    3.5148    0.5163    0.0000 C   0  0  0  0  0  0  0  0  0  0  0  0
    4.2994    0.7713    0.0000 C   0  0  0  0  0  0  0  0  0  0  0  0
    3.7697   -0.2683    0.0000 C   0  0  0  0  0  0  0  0  0  0  0  0
    3.5148    1.3414    0.0000 C   0  0  0  0  0  0  0  0  0  0  0  0
    2.4348   -0.2683    0.0000 C   0  0  0  0  0  0  0  0  0  0  0  0
    4.4709    1.5783    0.0000 C   0  0  0  0  0  0  0  0  0  0  0  0
    3.1023   -1.5783    0.0000 C   0  0  0  0  0  0  0  0  0  0  0  0
  1  5  1  0
  1  9  1  0
  2  7  2  0
  3  9  2  0
  4  7  1  0
  4  9  1  0
  4 11  1  0
  5  6  1  0
  5  7  1  0
  5  8  1  0
  6 10  1  0
M  END
$$$$
