
     RDKit          2D

 30 32  0  0  0  0  0  0  0  0999 V2000
   -0.7145   -0.4125    0.0000 N   0  0  0  0  0  0  0  0  0  0  0  0
    0.0000   -0.8250    0.0000 C   0  0  0  0  0  0  0  0  0  0  0  0
    0.7145   -0.4125    0.0000 C   0  0  0  0  0  0  0  0  0  0  0  0
    0.7145    0.4125    0.0000 C   0  0  0  0  0  0  0  0  0  0  0  0
    0.0000    0.8250    0.0000 C   0  0  0  0  0  0  0  0  0  0  0  0
   -0.7145    0.4125    0.0000 C   0  0  0  0  0  0  0  0  0  0  0  0
    1.4289   -0.8251    0.0000 C   0  0  0  0  0  0  0  0  0  0  0  0
    2.1433   -0.4128    0.0000 C   0  0  0  0  0  0  0  0  0  0  0  0
    2.1434    0.4123    0.0000 C   0  0  0  0  0  0  0  0  0  0  0  0
    1.4290    0.8248    0.0000 C   0  0  0  0  0  0  0  0  0  0  0  0
    0.0001    1.6499    0.0000 C   0  0  0  0  0  0  0  0  0  0  0  0
    0.7146    2.0624    0.0000 C   0  0  0  0  0  0  0  0  0  0  0  0
    0.7146    2.8874    0.0000 O   0  0  0  0  0  0  0  0  0  0  0  0
    1.4290    1.6498    0.0000 O   0  0  0  0  0  0  0  0  0  0  0  0
    2.8578    0.8248    0.0000 C   0  0  0  0  0  0  0  0  0  0  0  0
    2.8580    1.6498    0.0000 O   0  0  0  0  0  0  0  0  0  0  0  0
    3.5723    0.4122    0.0000 O   0  0  0  0  0  0  0  0  0  0  0  0
   -1.4989    0.6674    0.0000 C   0  0  0  0  0  0  0  0  0  0  0  0
   -1.9839    0.0001    0.0000 N   0  0  0  0  0  0  0  0  0  0  0  0
   -1.4991   -0.6674    0.0000 C   0  0  0  0  0  0  0  0  0  0  0  0
   -1.7541   -1.4520    0.0000 C   0  0  0  0  0  0  0  0  0  0  0  0
   -2.5610   -1.6235    0.0000 C   0  0  0  0  0  0  0  0  0  0  0  0
   -2.8159   -2.4082    0.0000 C   0  0  0  0  0  0  0  0  0  0  0  0
   -3.6228   -2.5797    0.0000 C   0  0  0  0  0  0  0  0  0  0  0  0
   -0.7143    2.0624    0.0000 C   0  0  0  0  0  0  0  0  0  0  0  0
   -0.7142    2.8874    0.0000 C   0  0  0  0  0  0  0  0  0  0  0  0
   -0.0467    3.3723    0.0000 S   0  0  0  0  0  0  0  0  0  0  0  0
   -0.3015    4.1569    0.0000 C   0  0  0  0  0  0  0  0  0  0  0  0
   -1.1265    4.1570    0.0000 C   0  0  0  0  0  0  0  0  0  0  0  0
   -1.3816    3.3724    0.0000 C   0  0  0  0  0  0  0  0  0  0  0  0
  1 20  1  0
  1  2  1  0
  2  3  1  0
  3  7  1  0
  3  4  2  0
  4 10  1  0
  5 11  2  0
  1  6  1  0
  6  5  1  0
  6 18  2  0
  7  8  2  0
  8  9  1  0
  9 15  1  0
 10  9  2  0
 11 25  1  0
 11 12  1  0
 12 13  2  0
 12 14  1  0
 15 16  2  0
 15 17  1  0
 18 19  1  0
 20 19  2  0
 20 21  1  0
 21 22  1  0
 22 23  1  0
 23 24  1  0
 26 27  1  0
 26 30  2  0
 27 28  1  0
 28 29  2  0
 30 29  1  0
 25 26  1  0
M  END
$$$$
