722
     RDKit          2D

 29 30  0  0  1  0  0  0  0  0999 V2000
    5.6655    0.7755    0.0000 O   0  0  0  0  0  0  0  0  0  0  0  0
    7.0162    2.7951    0.0000 O   0  0  0  0  0  0  0  0  0  0  0  0
    6.5746    1.4360    0.0000 O   0  0  0  0  0  0  0  0  0  0  0  0
    2.8075    0.7755    0.0000 O   0  0  0  0  0  0  0  0  0  0  0  0
    2.0930   -0.4620    0.0000 O   0  0  0  0  0  0  0  0  0  0  0  0
    4.9509    2.0130    0.0000 N   0  0  0  0  0  0  0  0  0  0  0  0
    4.2365   -0.0495    0.0000 N   0  0  0  0  0  0  0  0  0  0  0  0
    2.0930    3.6631    0.0000 N   0  0  0  0  0  0  0  0  0  0  0  0
    5.6185    2.4980    0.0000 C   0  0  0  0  0  0  0  0  0  0  0  0
    5.3634    3.2826    0.0000 C   0  0  0  0  0  0  0  0  0  0  0  0
    4.2835    2.4980    0.0000 C   0  0  0  0  0  0  0  0  0  0  0  0
    4.5384    3.2826    0.0000 C   0  0  0  0  0  0  0  0  0  0  0  0
    4.2365    0.7755    0.0000 C   0  0  0  0  0  0  0  0  0  0  0  0
    4.9509    1.1880    0.0000 C   0  0  0  0  0  0  0  0  0  0  0  0
    3.5220    1.1880    0.0000 C   0  0  0  0  0  0  0  0  0  0  0  0
    3.5220   -0.4620    0.0000 C   0  0  0  0  0  0  0  0  0  0  0  0
    3.5220    2.0130    0.0000 C   0  0  0  0  0  0  0  0  0  0  0  0
    6.4030    2.2431    0.0000 C   0  0  0  0  0  0  0  0  0  0  0  0
    3.5220   -1.2870    0.0000 C   0  0  0  0  0  0  0  0  0  0  0  0
    2.8075    2.4256    0.0000 C   0  0  0  0  0  0  0  0  0  0  0  0
    2.8075   -1.6995    0.0000 C   0  0  0  0  0  0  0  0  0  0  0  0
    2.8075   -0.0495    0.0000 C   0  0  0  0  0  0  0  0  0  0  0  0
    2.8075    3.2506    0.0000 C   0  0  0  0  0  0  0  0  0  0  0  0
    2.8075   -2.5246    0.0000 C   0  0  0  0  0  0  0  0  0  0  0  0
    3.5220   -2.9371    0.0000 C   0  0  0  0  0  0  0  0  0  0  0  0
    2.0930   -2.9371    0.0000 C   0  0  0  0  0  0  0  0  0  0  0  0
    3.5220   -3.7621    0.0000 C   0  0  0  0  0  0  0  0  0  0  0  0
    2.0930   -3.7621    0.0000 C   0  0  0  0  0  0  0  0  0  0  0  0
    2.8075   -4.1746    0.0000 C   0  0  0  0  0  0  0  0  0  0  0  0
  1 14  2  0
  2 18  1  0
  3 18  2  0
  4 22  1  0
  5 22  2  0
  6  9  1  0
  6 11  1  0
  6 14  1  0
 13  7  1  0
 16  7  1  0
  8 23  1  0
  9 10  1  0
  9 18  1  1
 10 12  1  0
 11 12  1  0
 13 14  1  0
 13 15  1  1
 15 17  1  0
 16 19  1  1
 16 22  1  0
 17 20  1  0
 19 21  1  0
 20 23  1  0
 21 24  1  0
 24 25  2  0
 24 26  1  0
 25 27  1  0
 26 28  2  0
 27 29  2  0
 28 29  1  0
M  END
$$$$
