304
     RDKit          2D

 23 26  0  0  1  0  0  0  0  0999 V2000
    5.9104    1.5551    0.0000 O   0  0  0  0  0  0  0  0  0  0  0  0
    5.3833    0.5186    0.0000 C   0  0  0  0  0  0  0  0  0  0  0  0
    5.3833   -0.3064    0.0000 C   0  0  0  0  0  0  0  0  0  0  0  0
    4.6689   -0.7189    0.0000 C   0  0  0  0  0  0  0  0  0  0  0  0
    3.9544   -0.3064    0.0000 C   0  0  0  0  0  0  0  0  0  0  0  0
    6.1640    0.7700    0.0000 C   0  0  0  0  0  0  0  0  0  0  0  0
    6.1640   -0.5579    0.0000 C   0  0  0  0  0  0  0  0  0  0  0  0
    4.6689    0.9311    0.0000 C   0  0  0  0  0  0  0  0  0  0  0  0
    6.6455    0.1061    0.0000 C   0  0  0  0  0  0  0  0  0  0  0  0
    3.2036   -0.7246    0.0000 C   0  0  0  0  0  0  0  0  0  0  0  0
    4.6821   -1.5783    0.0000 C   0  0  0  0  0  0  0  0  0  0  0  0
    3.9544    0.5186    0.0000 C   0  0  0  0  0  0  0  0  0  0  0  0
    5.3833    1.3436    0.0000 C   0  0  0  0  0  0  0  0  0  0  0  0
    3.9412   -2.0136    0.0000 C   0  0  0  0  0  0  0  0  0  0  0  0
    3.1970   -1.5840    0.0000 C   0  0  0  0  0  0  0  0  0  0  0  0
    2.4389   -0.2592    0.0000 C   0  0  0  0  0  0  0  0  0  0  0  0
    4.6689    1.7561    0.0000 C   0  0  0  0  0  0  0  0  0  0  0  0
    6.8323    1.2538    0.0000 C   0  0  0  0  0  0  0  0  0  0  0  0
    1.6570   -0.6948    0.0000 C   0  0  0  0  0  0  0  0  0  0  0  0
    2.4252   -2.0375    0.0000 C   0  0  0  0  0  0  0  0  0  0  0  0
    3.2399    0.9311    0.0000 C   0  0  0  0  0  0  0  0  0  0  0  0
    1.6500   -1.5899    0.0000 C   0  0  0  0  0  0  0  0  0  0  0  0
    7.5006    1.7376    0.0000 C   0  0  0  0  0  0  0  0  0  0  0  0
  6  1  1  1
  2  3  1  0
  2  6  1  0
  2  8  1  0
  2 13  1  1
  3  4  1  0
  3  7  1  1
  4  5  1  0
  4 11  1  6
  5 10  1  0
  5 12  1  1
  6  9  1  0
  6 18  1  0
  7  9  1  0
  8 12  1  0
 10 15  1  0
 10 16  1  6
 11 14  1  0
 12 21  2  3
 13 17  1  0
 14 15  1  0
 15 20  2  0
 16 19  1  0
 18 23  3  0
 19 22  1  0
 20 22  1  0
M  END
$$$$
