763
     RDKit          2D

  7  7  0  0  0  0  0  0  0  0999 V2000
    3.7697   -0.1992    0.0000 S   0  0  0  0  0  0  0  0  0  0  0  0
    2.3176   -0.4292    0.0000 N   0  0  0  0  0  0  0  0  0  0  0  0
    2.7301    0.8404    0.0000 N   0  0  0  0  0  0  0  0  0  0  0  0
    2.9850    0.0558    0.0000 C   0  0  0  0  0  0  0  0  0  0  0  0
    1.6501    0.0558    0.0000 C   0  0  0  0  0  0  0  0  0  0  0  0
    2.3176   -1.2542    0.0000 C   0  0  0  0  0  0  0  0  0  0  0  0
    1.9050    0.8404    0.0000 C   0  0  0  0  0  0  0  0  0  0  0  0
  1  4  2  0
  2  4  1  0
  2  5  1  0
  2  6  1  0
  3  4  1  0
  3  7  1  0
  5  7  2  0
M  END
$$$$
