688
     RDKit          2D

 31 33  0  0  0  0  0  0  0  0999 V2000
    1.6500   -0.5404    0.0000 O   0  0  0  0  0  0  0  0  0  0  0  0
   12.9150   -0.1279    0.0000 O   0  0  0  0  0  0  0  0  0  0  0  0
    5.2224    0.6971    0.0000 O   0  0  0  0  0  0  0  0  0  0  0  0
    9.5094   -0.9529    0.0000 O   0  0  0  0  0  0  0  0  0  0  0  0
   10.9383    1.5222    0.0000 O   0  0  0  0  0  0  0  0  0  0  0  0
   12.6898    1.3203    0.0000 O   0  0  0  0  0  0  0  0  0  0  0  0
    5.9370   -0.5404    0.0000 O   0  0  0  0  0  0  0  0  0  0  0  0
    3.0791    0.2846    0.0000 N   0  0  0  0  0  0  0  0  0  0  0  0
    3.0791   -0.5404    0.0000 C   0  0  0  0  0  0  0  0  0  0  0  0
    2.3645    0.6971    0.0000 C   0  0  0  0  0  0  0  0  0  0  0  0
    3.7935    0.6971    0.0000 C   0  0  0  0  0  0  0  0  0  0  0  0
    2.3645   -0.9529    0.0000 C   0  0  0  0  0  0  0  0  0  0  0  0
    1.6500    0.2846    0.0000 C   0  0  0  0  0  0  0  0  0  0  0  0
   11.6529   -0.5404    0.0000 C   0  0  0  0  0  0  0  0  0  0  0  0
   10.2239    0.2846    0.0000 C   0  0  0  0  0  0  0  0  0  0  0  0
   11.6529    0.2846    0.0000 C   0  0  0  0  0  0  0  0  0  0  0  0
   10.9383   -0.9529    0.0000 C   0  0  0  0  0  0  0  0  0  0  0  0
    4.5080    0.2846    0.0000 C   0  0  0  0  0  0  0  0  0  0  0  0
   10.2239   -0.5404    0.0000 C   0  0  0  0  0  0  0  0  0  0  0  0
   10.9383    0.6971    0.0000 C   0  0  0  0  0  0  0  0  0  0  0  0
    9.5094    0.6971    0.0000 C   0  0  0  0  0  0  0  0  0  0  0  0
   12.4335   -0.7918    0.0000 C   0  0  0  0  0  0  0  0  0  0  0  0
    8.7949    0.2846    0.0000 C   0  0  0  0  0  0  0  0  0  0  0  0
   12.4335    0.5360    0.0000 C   0  0  0  0  0  0  0  0  0  0  0  0
    7.3659    0.2846    0.0000 C   0  0  0  0  0  0  0  0  0  0  0  0
    8.0804    0.6971    0.0000 C   0  0  0  0  0  0  0  0  0  0  0  0
   10.9383   -1.7779    0.0000 C   0  0  0  0  0  0  0  0  0  0  0  0
    6.6515    0.6971    0.0000 C   0  0  0  0  0  0  0  0  0  0  0  0
    5.9370    0.2846    0.0000 C   0  0  0  0  0  0  0  0  0  0  0  0
    8.0804    1.5222    0.0000 C   0  0  0  0  0  0  0  0  0  0  0  0
    9.5094   -1.7779    0.0000 C   0  0  0  0  0  0  0  0  0  0  0  0
  1 12  1  0
  1 13  1  0
  2 22  1  0
  2 24  1  0
  3 18  1  0
  3 29  1  0
  4 19  1  0
  4 31  1  0
  5 20  1  0
  6 24  2  0
  7 29  2  0
  8  9  1  0
  8 10  1  0
  8 11  1  0
  9 12  1  0
 10 13  1  0
 11 18  1  0
 14 16  2  0
 14 17  1  0
 14 22  1  0
 15 19  1  0
 15 20  2  0
 15 21  1  0
 16 20  1  0
 16 24  1  0
 17 19  2  0
 17 27  1  0
 21 23  1  0
 23 26  2  0
 25 26  1  0
 25 28  1  0
 26 30  1  0
 28 29  1  0
M  END
$$$$
