
     RDKit          2D

 33 36  0  0  0  0  0  0  0  0999 V2000
    0.0000    0.8250    0.0000 C   0  0  0  0  0  0  0  0  0  0  0  0
    0.7145    0.4125    0.0000 C   0  0  0  0  0  0  0  0  0  0  0  0
    0.7145   -0.4125    0.0000 C   0  0  0  0  0  0  0  0  0  0  0  0
    0.0000   -0.8250    0.0000 C   0  0  0  0  0  0  0  0  0  0  0  0
   -0.7145   -0.4125    0.0000 C   0  0  0  0  0  0  0  0  0  0  0  0
   -0.7145    0.4125    0.0000 N   0  0  0  0  0  0  0  0  0  0  0  0
    0.7145    2.0625    0.0000 C   0  0  0  0  0  0  0  0  0  0  0  0
    0.0000    1.6500    0.0000 C   0  0  0  0  0  0  0  0  0  0  0  0
    1.4289    0.8250    0.0000 C   0  0  0  0  0  0  0  0  0  0  0  0
    1.4289    1.6500    0.0000 C   0  0  0  0  0  0  0  0  0  0  0  0
    0.0000   -1.6500    0.0000 C   0  0  0  0  0  0  0  0  0  0  0  0
    0.7145   -2.0625    0.0000 C   0  0  0  0  0  0  0  0  0  0  0  0
    1.4289   -1.6500    0.0000 C   0  0  0  0  0  0  0  0  0  0  0  0
    1.4289   -0.8250    0.0000 C   0  0  0  0  0  0  0  0  0  0  0  0
   -1.4991    0.6674    0.0000 N   0  0  0  0  0  0  0  0  0  0  0  0
   -1.9840    0.0000    0.0000 N   0  0  0  0  0  0  0  0  0  0  0  0
   -1.4991   -0.6674    0.0000 N   0  0  0  0  0  0  0  0  0  0  0  0
    0.7145    2.8875    0.0000 C   0  0  0  0  0  0  0  0  0  0  0  0
    2.2136    3.0451    0.0000 C   0  0  0  0  0  0  0  0  0  0  0  0
    2.6985    3.7125    0.0000 N   0  0  0  0  0  0  0  0  0  0  0  0
    1.4289    3.3000    0.0000 N   0  0  0  0  0  0  0  0  0  0  0  0
    2.4685    2.2604    0.0000 C   0  0  0  0  0  0  0  0  0  0  0  0
    3.2755    2.0889    0.0000 C   0  0  0  0  0  0  0  0  0  0  0  0
    3.5304    1.3043    0.0000 C   0  0  0  0  0  0  0  0  0  0  0  0
    1.4289    4.1250    0.0000 C   0  0  0  0  0  0  0  0  0  0  0  0
    0.7145    4.5375    0.0000 C   0  0  0  0  0  0  0  0  0  0  0  0
    0.7145    5.3625    0.0000 O   0  0  0  0  0  0  0  0  0  0  0  0
    0.0000    4.1250    0.0000 O   0  0  0  0  0  0  0  0  0  0  0  0
    2.2136    4.3799    0.0000 C   0  0  0  0  0  0  0  0  0  0  0  0
    2.4685    5.1646    0.0000 C   0  0  0  0  0  0  0  0  0  0  0  0
    1.9165    5.7777    0.0000 C   0  0  0  0  0  0  0  0  0  0  0  0
    3.2755    5.3361    0.0000 C   0  0  0  0  0  0  0  0  0  0  0  0
    2.7234    5.9492    0.0000 O   0  0  0  0  0  0  0  0  0  0  0  0
  8  1  2  0
  1  2  1  0
  2  9  2  0
  2  3  1  0
  3 14  2  0
  3  4  1  0
  4 11  2  0
  4  5  1  0
  5 17  2  0
  5  6  1  0
  6 15  1  0
 18  7  1  0
  7  8  1  0
  7 10  2  0
  9 10  1  0
 11 12  1  0
 12 13  2  0
 13 14  1  0
 15 16  2  0
 16 17  1  0
 21 18  1  0
 19 20  2  0
 19 21  1  0
 19 22  1  0
 20 29  1  0
 29 25  2  0
 25 21  1  0
 22 23  1  0
 23 24  1  0
 25 26  1  0
 26 28  1  0
 26 27  2  0
 29 30  1  0
 30 33  1  0
 30 31  1  0
 30 32  1  0
M  END
$$$$
