
     RDKit          2D

 34 36  0  0  0  0  0  0  0  0999 V2000
   -4.3748    5.3422    0.0000 C   0  0  0  0  0  0  0  0  0  0  0  0
   -0.8082   -7.1196    0.0000 C   0  0  0  0  0  0  0  0  0  0  0  0
   -2.7512    5.5902    0.0000 C   0  0  0  0  0  0  0  0  0  0  0  0
   -4.2032    4.5352    0.0000 C   0  0  0  0  0  0  0  0  0  0  0  0
    0.3478   -6.2797    0.0000 C   0  0  0  0  0  0  0  0  0  0  0  0
   -0.9576   -5.6985    0.0000 C   0  0  0  0  0  0  0  0  0  0  0  0
   -1.8906   -0.7677    0.0000 C   0  0  0  0  0  0  0  0  0  0  0  0
   -0.7345    0.0722    0.0000 C   0  0  0  0  0  0  0  0  0  0  0  0
    0.6834   -5.5260    0.0000 C   0  0  0  0  0  0  0  0  0  0  0  0
   -0.6220   -4.9448    0.0000 C   0  0  0  0  0  0  0  0  0  0  0  0
   -1.4057   -1.4351    0.0000 C   0  0  0  0  0  0  0  0  0  0  0  0
   -0.2496   -0.5952    0.0000 C   0  0  0  0  0  0  0  0  0  0  0  0
   -2.0399    0.6534    0.0000 C   0  0  0  0  0  0  0  0  0  0  0  0
   -1.7044    1.4071    0.0000 C   0  0  0  0  0  0  0  0  0  0  0  0
   -2.0837    4.2803    0.0000 C   0  0  0  0  0  0  0  0  0  0  0  0
   -0.4726   -6.3659    0.0000 C   0  0  0  0  0  0  0  0  0  0  0  0
   -2.7512    4.7652    0.0000 C   0  0  0  0  0  0  0  0  0  0  0  0
   -1.5550   -0.0140    0.0000 C   0  0  0  0  0  0  0  0  0  0  0  0
    0.1985   -4.8586    0.0000 C   0  0  0  0  0  0  0  0  0  0  0  0
   -0.5852   -1.3489    0.0000 C   0  0  0  0  0  0  0  0  0  0  0  0
   -3.4186    4.2803    0.0000 C   0  0  0  0  0  0  0  0  0  0  0  0
   -3.1637    3.4956    0.0000 C   0  0  0  0  0  0  0  0  0  0  0  0
    0.0491   -3.4375    0.0000 C   0  0  0  0  0  0  0  0  0  0  0  0
   -1.8538    2.8282    0.0000 C   0  0  0  0  0  0  0  0  0  0  0  0
   -2.1893    2.0745    0.0000 N   0  0  0  0  0  0  0  0  0  0  0  0
    0.5340   -4.1049    0.0000 N   0  0  0  0  0  0  0  0  0  0  0  0
    0.3847   -2.6838    0.0000 N   0  0  0  0  0  0  0  0  0  0  0  0
   -2.3387    3.4956    0.0000 N   0  0  0  0  0  0  0  0  0  0  0  0
   -3.6486    2.8282    0.0000 O   0  0  0  0  0  0  0  0  0  0  0  0
   -0.7714   -3.5237    0.0000 O   0  0  0  0  0  0  0  0  0  0  0  0
   -1.0333    2.9144    0.0000 O   0  0  0  0  0  0  0  0  0  0  0  0
   -0.7677   -2.5013    0.0000 O   0  0  0  0  0  0  0  0  0  0  0  0
    0.5672   -1.5314    0.0000 O   0  0  0  0  0  0  0  0  0  0  0  0
   -0.1003   -2.0163    0.0000 S   0  0  0  0  0  0  0  0  0  0  0  0
  4  1  1  0
  9  5  1  0
 10  6  1  0
 11  7  2  0
 12  8  1  0
 14 13  1  0
 16  2  1  6
 16  5  1  0
 16  6  1  0
 17  3  1  0
 17 15  1  0
 18  7  1  0
 18  8  2  0
 18 13  1  0
 19  9  1  0
 19 10  1  0
 20 11  1  0
 20 12  2  0
 21  4  1  0
 21 17  2  0
 22 21  1  0
 25 14  1  0
 25 24  2  3
 19 26  1  1
 26 23  2  3
 27 23  1  0
 28 15  1  0
 28 22  1  0
 28 24  1  0
 29 22  2  0
 23 30  1  0
 31 24  1  0
 34 20  1  0
 34 27  1  0
 34 32  2  0
 34 33  2  0
M  END
$$$$
