
     RDKit          2D

 34 37  0  0  1  0  0  0  0  0999 V2000
    9.5685  -11.9973    0.0000 C   0  0  0  0  0  0  0  0  0  0  0  0
    8.8540  -12.4098    0.0000 C   0  0  0  0  0  0  0  0  0  0  0  0
    8.8540  -13.2348    0.0000 C   0  0  0  0  0  0  0  0  0  0  0  0
    9.5685  -13.6473    0.0000 C   0  0  0  0  0  0  0  0  0  0  0  0
   10.2830  -13.2348    0.0000 C   0  0  0  0  0  0  0  0  0  0  0  0
   10.2830  -12.4098    0.0000 C   0  0  0  0  0  0  0  0  0  0  0  0
   10.9974  -11.9973    0.0000 C   0  0  0  0  0  0  0  0  0  0  0  0
   10.9974  -13.6473    0.0000 C   0  0  0  0  0  0  0  0  0  0  0  0
   11.7119  -13.2348    0.0000 C   0  0  0  0  0  0  0  0  0  0  0  0
   11.7119  -12.4098    0.0000 C   0  0  0  0  0  0  0  0  0  0  0  0
   11.7119  -10.7598    0.0000 C   0  0  0  0  0  0  0  0  0  0  0  0
   10.9974  -11.1723    0.0000 C   0  0  0  0  0  0  0  0  0  0  0  0
   12.4264  -11.9973    0.0000 C   0  0  0  0  0  0  0  0  0  0  0  0
   12.4264  -11.1723    0.0000 C   0  0  0  0  0  0  0  0  0  0  0  0
   13.2110  -10.9174    0.0000 C   0  0  0  0  0  0  0  0  0  0  0  0
   13.2110  -12.2523    0.0000 C   0  0  0  0  0  0  0  0  0  0  0  0
   13.6959  -11.5848    0.0000 C   0  0  0  0  0  0  0  0  0  0  0  0
    8.1396  -13.6473    0.0000 O   0  0  0  0  0  0  0  0  0  0  0  0
   10.2830  -11.5848    0.0000 C   0  0  0  0  0  0  0  0  0  0  0  0
   12.4264  -10.3473    0.0000 C   0  0  0  0  0  0  0  0  0  0  0  0
   10.2830  -10.7598    0.0000 O   0  0  0  0  0  0  0  0  0  0  0  0
   13.2110  -10.0924    0.0000 C   0  0  0  0  0  0  0  0  0  0  0  0
   12.4965   -9.6799    0.0000 O   0  0  0  0  0  0  0  0  0  0  0  0
   13.9254   -9.6799    0.0000 C   0  0  0  0  0  0  0  0  0  0  0  0
   14.6399  -10.0924    0.0000 O   0  0  0  0  0  0  0  0  0  0  0  0
   15.3544   -9.6799    0.0000 C   0  0  0  0  0  0  0  0  0  0  0  0
   15.3544   -8.8549    0.0000 O   0  0  0  0  0  0  0  0  0  0  0  0
   16.0689  -10.0924    0.0000 C   0  0  0  0  0  0  0  0  0  0  0  0
   16.7833   -9.6799    0.0000 N   0  0  0  0  0  0  0  0  0  0  0  0
   16.7833   -8.8549    0.0000 C   0  0  0  0  0  0  0  0  0  0  0  0
   17.4978   -8.4424    0.0000 C   0  0  0  0  0  0  0  0  0  0  0  0
   17.4978  -10.0924    0.0000 C   0  0  0  0  0  0  0  0  0  0  0  0
   18.2123   -9.6799    0.0000 C   0  0  0  0  0  0  0  0  0  0  0  0
   13.9254  -10.5049    0.0000 O   0  0  0  0  0  0  0  0  0  0  0  0
  1  2  1  0
  2  3  1  0
  3  4  1  0
  4  5  2  0
  1  6  1  0
  7  6  1  0
  6  5  1  0
  5  8  1  0
  8  9  1  0
 10  9  1  6
 10 13  1  0
  7 10  1  0
  7 12  1  1
 11 12  1  0
 11 14  1  0
 13 16  1  1
 14 13  1  0
 15 14  1  0
 16 17  1  0
 15 17  1  0
  3 18  2  0
  6 19  1  1
 14 20  1  1
 12 21  1  1
 15 22  1  0
 22 23  2  0
 22 24  1  0
 24 25  1  0
 25 26  1  0
 26 27  2  0
 26 28  1  0
 28 29  1  0
 29 30  1  0
 30 31  1  0
 29 32  1  0
 32 33  1  0
 15 34  1  6
M  END
$$$$
