523
     RDKit          2D

 22 22  0  0  0  0  0  0  0  0999 V2000
    0.9574   -5.0146    0.0000 O   0  0  0  0  0  0  0  0  0  0  0  0
    2.3864   -5.0146    0.0000 O   0  0  0  0  0  0  0  0  0  0  0  0
    6.6732   -0.8896    0.0000 C   0  0  0  0  0  0  0  0  0  0  0  0
    7.3877   -1.3021    0.0000 C   0  0  0  0  0  0  0  0  0  0  0  0
    7.3877   -2.1271    0.0000 C   0  0  0  0  0  0  0  0  0  0  0  0
    5.9587   -1.3021    0.0000 C   0  0  0  0  0  0  0  0  0  0  0  0
    6.6732   -2.5396    0.0000 C   0  0  0  0  0  0  0  0  0  0  0  0
    5.9587   -2.1271    0.0000 C   0  0  0  0  0  0  0  0  0  0  0  0
    7.0605   -0.1611    0.0000 C   0  0  0  0  0  0  0  0  0  0  0  0
    6.2859   -0.1611    0.0000 C   0  0  0  0  0  0  0  0  0  0  0  0
    5.2443   -0.8896    0.0000 C   0  0  0  0  0  0  0  0  0  0  0  0
    5.2443   -2.5396    0.0000 C   0  0  0  0  0  0  0  0  0  0  0  0
    4.5298   -1.3021    0.0000 C   0  0  0  0  0  0  0  0  0  0  0  0
    3.8153   -0.8896    0.0000 C   0  0  0  0  0  0  0  0  0  0  0  0
    3.8153   -0.0646    0.0000 C   0  0  0  0  0  0  0  0  0  0  0  0
    3.1008   -1.3021    0.0000 C   0  0  0  0  0  0  0  0  0  0  0  0
    3.1008   -2.1271    0.0000 C   0  0  0  0  0  0  0  0  0  0  0  0
    2.3864   -2.5396    0.0000 C   0  0  0  0  0  0  0  0  0  0  0  0
    2.3864   -3.3646    0.0000 C   0  0  0  0  0  0  0  0  0  0  0  0
    3.1008   -3.7771    0.0000 C   0  0  0  0  0  0  0  0  0  0  0  0
    1.6719   -3.7771    0.0000 C   0  0  0  0  0  0  0  0  0  0  0  0
    1.6719   -4.6021    0.0000 C   0  0  0  0  0  0  0  0  0  0  0  0
  1 22  1  0
  2 22  2  0
  3  4  1  0
  3  6  1  0
  3  9  1  0
  3 10  1  0
  4  5  1  0
  5  7  1  0
  6  8  2  0
  6 11  1  0
  7  8  1  0
  8 12  1  0
 11 13  2  0
 13 14  1  0
 14 15  1  0
 14 16  2  0
 16 17  1  0
 17 18  2  0
 18 19  1  0
 19 20  1  0
 19 21  2  0
 21 22  1  0
M  END
$$$$
