 
     RDKit          2D

 32 35  0  0  1  0  0  0  0  0999 V2000
   17.9362   -9.4212    0.0000 C   0  0  0  0  0  0  0  0  0  0  0  0
   17.9533  -10.2420    0.0000 C   0  0  0  0  0  0  0  0  0  0  0  0
   18.6558   -9.0195    0.0000 C   0  0  0  0  0  0  0  0  0  0  0  0
   17.2306   -9.0021    0.0000 C   0  0  0  0  0  0  0  0  0  0  0  0
   17.2132  -10.6472    0.0000 C   0  0  0  0  0  0  0  0  0  0  0  0
   18.6314  -10.6646    0.0000 C   0  0  0  0  0  0  0  0  0  0  0  0
   19.3578   -9.4422    0.0000 C   0  0  0  0  0  0  0  0  0  0  0  0
   16.5111   -9.4073    0.0000 C   0  0  0  0  0  0  0  0  0  0  0  0
   16.5467  -10.2315    0.0000 C   0  0  0  0  0  0  0  0  0  0  0  0
   17.2098  -11.4751    0.0000 O   0  0  0  0  0  0  0  0  0  0  0  0
   19.3508  -10.2630    0.0000 C   0  0  0  0  0  0  0  0  0  0  0  0
   18.6024  -11.4925    0.0000 O   0  0  0  0  0  0  0  0  0  0  0  0
   20.0845   -9.0405    0.0000 O   0  0  0  0  0  0  0  0  0  0  0  0
   15.7986   -8.9915    0.0000 C   0  0  0  0  0  0  0  0  0  0  0  0
   15.7916  -10.6437    0.0000 C   0  0  0  0  0  0  0  0  0  0  0  0
   20.0599  -10.6892    0.0000 C   0  0  0  0  0  0  0  0  0  0  0  0
   15.0859   -9.4004    0.0000 C   0  0  0  0  0  0  0  0  0  0  0  0
   15.0825  -10.2280    0.0000 C   0  0  0  0  0  0  0  0  0  0  0  0
   15.7916  -11.4680    0.0000 O   0  0  0  0  0  0  0  0  0  0  0  0
   20.7830  -10.2839    0.0000 N   0  0  0  0  0  0  0  0  0  0  0  0
   20.0771  -11.5169    0.0000 O   0  0  0  0  0  0  0  0  0  0  0  0
   14.3629   -8.9881    0.0000 C   0  0  0  0  0  0  0  0  0  0  0  0
   14.3665  -10.6402    0.0000 C   0  0  0  0  0  0  0  0  0  0  0  0
   13.6503   -9.4038    0.0000 C   0  0  0  0  0  0  0  0  0  0  0  0
   13.6503  -10.2315    0.0000 C   0  0  0  0  0  0  0  0  0  0  0  0
   14.3665  -11.4680    0.0000 O   0  0  0  0  0  0  0  0  0  0  0  0
   15.8018   -7.9491    0.0000 C   0  0  0  0  0  0  0  0  0  0  0  0
   18.6694   -7.6875    0.0000 N   0  0  0  0  0  0  0  0  0  0  0  0
   19.3998   -7.2816    0.0000 C   0  0  0  0  0  0  0  0  0  0  0  0
   17.9526   -7.2579    0.0000 C   0  0  0  0  0  0  0  0  0  0  0  0
   17.2245   -7.9574    0.0000 O   0  0  0  0  0  0  0  0  0  0  0  0
   17.9208  -11.0764    0.0000 O   0  0  0  0  0  0  0  0  0  0  0  0
  5  9  2  0
  5 10  1  0
  6 11  1  0
  6 12  2  0
  7 13  1  0
  8 14  1  0
  9 15  1  0
 11 16  1  0
 14 17  1  0
 15 18  1  0
 15 19  2  0
 16 20  1  0
 16 21  2  0
 17 22  2  0
 18 23  2  0
 22 24  1  0
 23 25  1  0
 23 26  1  0
  7 11  2  0
  8  9  1  1
 17 18  1  0
 24 25  2  0
 14 27  1  6
  3 28  1  6
  1  2  1  0
 28 29  1  0
  1  3  1  1
 28 30  1  0
  1  4  1  0
  2  5  1  0
  2  6  1  0
  4 31  1  6
  3  7  1  0
  2 32  1  6
  4  8  1  0
M  END
$$$$
