
     RDKit          2D

 81 81  0  0  0  0  0  0  0  0999 V2000
   -8.0321    1.1628    0.0000 C   0  0  0  0  0  0  0  0  0  0  0  0
    4.3020    3.3597    0.0000 C   0  0  0  0  0  0  0  0  0  0  0  0
    5.4581    4.1996    0.0000 C   0  0  0  0  0  0  0  0  0  0  0  0
    2.6611    3.1872    0.0000 C   0  0  0  0  0  0  0  0  0  0  0  0
    3.9665    2.6060    0.0000 C   0  0  0  0  0  0  0  0  0  0  0  0
   -6.6031    1.9878    0.0000 C   0  0  0  0  0  0  0  0  0  0  0  0
    2.5875   -4.0045    0.0000 C   0  0  0  0  0  0  0  0  0  0  0  0
   -3.0308   -4.1996    0.0000 C   0  0  0  0  0  0  0  0  0  0  0  0
   -7.3176    0.7503    0.0000 C   0  0  0  0  0  0  0  0  0  0  0  0
   -5.1742    1.1628    0.0000 C   0  0  0  0  0  0  0  0  0  0  0  0
   -5.8887    0.7503    0.0000 C   0  0  0  0  0  0  0  0  0  0  0  0
   -4.4597    0.7503    0.0000 C   0  0  0  0  0  0  0  0  0  0  0  0
   -5.8887   -1.7246    0.0000 C   0  0  0  0  0  0  0  0  0  0  0  0
    6.7267    0.0225    0.0000 C   0  0  0  0  0  0  0  0  0  0  0  0
    1.3189    0.1725    0.0000 C   0  0  0  0  0  0  0  0  0  0  0  0
   -0.8874   -2.9621    0.0000 C   0  0  0  0  0  0  0  0  0  0  0  0
    4.8995   -2.3246    0.0000 C   0  0  0  0  0  0  0  0  0  0  0  0
   -0.0867   -2.5451    0.0000 C   0  0  0  0  0  0  0  0  0  0  0  0
   -6.6031   -1.3121    0.0000 C   0  0  0  0  0  0  0  0  0  0  0  0
    7.2116   -0.6448    0.0000 C   0  0  0  0  0  0  0  0  0  0  0  0
    0.4984    0.0863    0.0000 C   0  0  0  0  0  0  0  0  0  0  0  0
   -0.8874   -3.7871    0.0000 C   0  0  0  0  0  0  0  0  0  0  0  0
    5.7200   -2.2384    0.0000 C   0  0  0  0  0  0  0  0  0  0  0  0
    0.7202   -2.7166    0.0000 C   0  0  0  0  0  0  0  0  0  0  0  0
    5.6074    2.7785    0.0000 C   0  0  0  0  0  0  0  0  0  0  0  0
    2.8105    1.7661    0.0000 C   0  0  0  0  0  0  0  0  0  0  0  0
    5.1225    3.4460    0.0000 C   0  0  0  0  0  0  0  0  0  0  0  0
    3.1460    2.5198    0.0000 C   0  0  0  0  0  0  0  0  0  0  0  0
   -6.6031    1.1628    0.0000 C   0  0  0  0  0  0  0  0  0  0  0  0
    2.9230   -3.2508    0.0000 C   0  0  0  0  0  0  0  0  0  0  0  0
   -3.7453   -3.7871    0.0000 C   0  0  0  0  0  0  0  0  0  0  0  0
   -5.1742   -1.3121    0.0000 C   0  0  0  0  0  0  0  0  0  0  0  0
    5.9062   -0.0636    0.0000 C   0  0  0  0  0  0  0  0  0  0  0  0
    1.8038   -0.4948    0.0000 C   0  0  0  0  0  0  0  0  0  0  0  0
   -1.6019   -2.5496    0.0000 C   0  0  0  0  0  0  0  0  0  0  0  0
    4.4146   -1.6572    0.0000 C   0  0  0  0  0  0  0  0  0  0  0  0
   -0.1729   -1.7246    0.0000 C   0  0  0  0  0  0  0  0  0  0  0  0
    5.2719    2.0249    0.0000 C   0  0  0  0  0  0  0  0  0  0  0  0
    3.2954    1.0987    0.0000 C   0  0  0  0  0  0  0  0  0  0  0  0
   -4.4597   -0.0746    0.0000 C   0  0  0  0  0  0  0  0  0  0  0  0
    2.4381   -2.5834    0.0000 C   0  0  0  0  0  0  0  0  0  0  0  0
   -3.7453   -2.9621    0.0000 C   0  0  0  0  0  0  0  0  0  0  0  0
    5.5707   -0.8173    0.0000 C   0  0  0  0  0  0  0  0  0  0  0  0
   -1.6019   -1.7246    0.0000 C   0  0  0  0  0  0  0  0  0  0  0  0
    2.1394    0.2588    0.0000 C   0  0  0  0  0  0  0  0  0  0  0  0
    0.5807   -1.3891    0.0000 C   0  0  0  0  0  0  0  0  0  0  0  0
   -4.4597   -1.7246    0.0000 C   0  0  0  0  0  0  0  0  0  0  0  0
    3.5941   -1.7434    0.0000 C   0  0  0  0  0  0  0  0  0  0  0  0
    5.7568    1.3574    0.0000 C   0  0  0  0  0  0  0  0  0  0  0  0
    4.1159    1.1849    0.0000 C   0  0  0  0  0  0  0  0  0  0  0  0
    2.1026   -3.3370    0.0000 C   0  0  0  0  0  0  0  0  0  0  0  0
   -3.0308   -2.5496    0.0000 C   0  0  0  0  0  0  0  0  0  0  0  0
   -7.3176   -1.7246    0.0000 N   0  0  0  0  0  0  0  0  0  0  0  0
    8.0321   -0.5585    0.0000 N   0  0  0  0  0  0  0  0  0  0  0  0
    0.0135    0.7537    0.0000 N   0  0  0  0  0  0  0  0  0  0  0  0
   -0.1729   -4.1996    0.0000 N   0  0  0  0  0  0  0  0  0  0  0  0
    6.2050   -2.9058    0.0000 N   0  0  0  0  0  0  0  0  0  0  0  0
    1.2821   -3.4233    0.0000 N   0  0  0  0  0  0  0  0  0  0  0  0
   -5.1742   -0.4871    0.0000 N   0  0  0  0  0  0  0  0  0  0  0  0
    0.9833   -0.5811    0.0000 N   0  0  0  0  0  0  0  0  0  0  0  0
    4.7502   -0.9035    0.0000 N   0  0  0  0  0  0  0  0  0  0  0  0
    5.4213    0.6037    0.0000 N   0  0  0  0  0  0  0  0  0  0  0  0
   -0.8874   -1.3121    0.0000 N   0  0  0  0  0  0  0  0  0  0  0  0
   -2.3163   -2.9621    0.0000 N   0  0  0  0  0  0  0  0  0  0  0  0
    2.9598    0.3450    0.0000 N   0  0  0  0  0  0  0  0  0  0  0  0
    4.4514    1.9386    0.0000 N   0  0  0  0  0  0  0  0  0  0  0  0
    3.2586   -2.4971    0.0000 N   0  0  0  0  0  0  0  0  0  0  0  0
   -4.4597   -2.5496    0.0000 N   0  0  0  0  0  0  0  0  0  0  0  0
    3.7435   -3.1646    0.0000 O   0  0  0  0  0  0  0  0  0  0  0  0
   -4.4597   -4.1996    0.0000 O   0  0  0  0  0  0  0  0  0  0  0  0
   -3.7453   -0.4871    0.0000 O   0  0  0  0  0  0  0  0  0  0  0  0
    6.0556   -1.4847    0.0000 O   0  0  0  0  0  0  0  0  0  0  0  0
   -2.3163   -1.3121    0.0000 O   0  0  0  0  0  0  0  0  0  0  0  0
    1.6544    0.9262    0.0000 O   0  0  0  0  0  0  0  0  0  0  0  0
    1.1512   -1.9850    0.0000 O   0  0  0  0  0  0  0  0  0  0  0  0
   -3.7453   -1.3121    0.0000 O   0  0  0  0  0  0  0  0  0  0  0  0
    3.1092   -1.0760    0.0000 O   0  0  0  0  0  0  0  0  0  0  0  0
    6.5773    1.4437    0.0000 O   0  0  0  0  0  0  0  0  0  0  0  0
    4.6008    0.5175    0.0000 O   0  0  0  0  0  0  0  0  0  0  0  0
    2.1026   -4.1620    0.0000 O   0  0  0  0  0  0  0  0  0  0  0  0
   -3.0308   -1.7246    0.0000 O   0  0  0  0  0  0  0  0  0  0  0  0
  9  1  1  0
 11 10  1  0
 12 10  1  0
 19 13  1  0
 20 14  1  0
 21 15  1  0
 22 16  1  0
 23 17  1  0
 24 18  1  0
 27  2  1  0
 27  3  1  0
 27 25  1  0
 28  4  1  0
 28  5  1  0
 28 26  1  0
 29  6  1  0
 29  9  1  0
 29 11  1  0
 30  7  1  6
 31  8  1  1
 32 13  1  6
 33 14  1  1
 34 15  1  6
 35 16  1  6
 36 17  1  6
 37 18  1  0
 38 25  1  6
 39 26  1  0
 40 12  1  0
 41 30  1  0
 42 31  1  0
 43 33  1  0
 44 35  1  0
 45 34  1  0
 46 37  1  0
 47 32  1  0
 48 36  1  0
 49 38  1  0
 50 39  1  0
 51 41  1  0
 52 42  1  0
 53 19  1  0
 54 20  1  0
 55 21  1  0
 56 22  1  0
 57 23  1  0
 58 24  1  0
 58 51  2  0
 32 59  1  0
 59 40  2  3
 60 34  1  0
 60 46  2  0
 61 36  1  0
 61 43  2  0
 62 33  1  0
 62 49  2  0
 37 63  1  6
 63 44  2  3
 35 64  1  0
 64 52  2  3
 65 39  1  0
 65 45  2  0
 66 38  1  0
 66 50  2  0
 67 41  1  0
 67 48  2  0
 42 68  1  6
 68 47  2  3
 30 69  1  0
 31 70  1  0
 40 71  1  0
 43 72  1  0
 44 73  1  0
 74 45  1  0
 46 75  1  0
 47 76  1  0
 77 48  1  0
 49 78  1  0
 50 79  1  0
 80 51  1  0
 52 81  1  0
M  END
$$$$
