884
     RDKit          2D

 17 17  0  0  0  0  0  0  0  0999 V2000
    2.8075    1.4134    0.0000 P   0  0  0  0  0  0  0  0  0  0  0  0
    3.9344    1.1114    0.0000 P   0  0  0  0  0  0  0  0  0  0  0  0
    3.6325   -0.0156    0.0000 O   0  0  0  0  0  0  0  0  0  0  0  0
    2.3950    2.1278    0.0000 O   0  0  0  0  0  0  0  0  0  0  0  0
    2.0929    1.0009    0.0000 O   0  0  0  0  0  0  0  0  0  0  0  0
    4.6489    1.5239    0.0000 O   0  0  0  0  0  0  0  0  0  0  0  0
    4.3469    0.3969    0.0000 O   0  0  0  0  0  0  0  0  0  0  0  0
    3.0896    2.1886    0.0000 O   0  0  0  0  0  0  0  0  0  0  0  0
    4.0776    1.9238    0.0000 O   0  0  0  0  0  0  0  0  0  0  0  0
    1.7910   -1.7761    0.0000 N   0  0  0  0  0  0  0  0  0  0  0  0
    3.2200    0.6989    0.0000 C   0  0  0  0  0  0  0  0  0  0  0  0
    2.5054    0.2864    0.0000 C   0  0  0  0  0  0  0  0  0  0  0  0
    2.5054   -0.5386    0.0000 C   0  0  0  0  0  0  0  0  0  0  0  0
    3.2200   -0.9511    0.0000 C   0  0  0  0  0  0  0  0  0  0  0  0
    1.7910   -0.9511    0.0000 C   0  0  0  0  0  0  0  0  0  0  0  0
    3.2200   -1.7761    0.0000 C   0  0  0  0  0  0  0  0  0  0  0  0
    2.5054   -2.1886    0.0000 C   0  0  0  0  0  0  0  0  0  0  0  0
  1  4  1  0
  1  5  1  0
  1  8  2  0
  1 11  1  0
  2  6  1  0
  2  7  1  0
  2  9  2  0
  2 11  1  0
  3 11  1  0
 10 15  2  0
 10 17  1  0
 11 12  1  0
 12 13  1  0
 13 14  2  0
 13 15  1  0
 14 16  1  0
 16 17  2  0
M  END
$$$$
