408
     RDKit          2D

 23 26  0  0  0  0  0  0  0  0999 V2000
    1.5841   -1.1304    0.0000 Cl  0  0  0  0  0  0  0  0  0  0  0  0
    4.6238   -2.1816    0.0000 O   0  0  0  0  0  0  0  0  0  0  0  0
    3.8841    0.2673    0.0000 N   0  0  0  0  0  0  0  0  0  0  0  0
    3.1967    1.6946    0.0000 N   0  0  0  0  0  0  0  0  0  0  0  0
    5.0198   -0.4464    0.0000 N   0  0  0  0  0  0  0  0  0  0  0  0
    4.3303    0.9217    0.0000 C   0  0  0  0  0  0  0  0  0  0  0  0
    3.0943    0.3265    0.0000 C   0  0  0  0  0  0  0  0  0  0  0  0
    3.9866    1.6354    0.0000 C   0  0  0  0  0  0  0  0  0  0  0  0
    2.7505    1.0402    0.0000 C   0  0  0  0  0  0  0  0  0  0  0  0
    4.2277   -0.4464    0.0000 C   0  0  0  0  0  0  0  0  0  0  0  0
    2.8531    2.4082    0.0000 C   0  0  0  0  0  0  0  0  0  0  0  0
    3.7338   -1.0656    0.0000 C   0  0  0  0  0  0  0  0  0  0  0  0
    3.9102   -1.8378    0.0000 C   0  0  0  0  0  0  0  0  0  0  0  0
    5.5136   -1.0656    0.0000 C   0  0  0  0  0  0  0  0  0  0  0  0
    2.9493   -0.8103    0.0000 C   0  0  0  0  0  0  0  0  0  0  0  0
    5.3375   -1.8378    0.0000 C   0  0  0  0  0  0  0  0  0  0  0  0
    3.3140   -2.4082    0.0000 C   0  0  0  0  0  0  0  0  0  0  0  0
    2.3402   -1.3668    0.0000 C   0  0  0  0  0  0  0  0  0  0  0  0
    2.5237   -2.1711    0.0000 C   0  0  0  0  0  0  0  0  0  0  0  0
    6.2983   -0.8103    0.0000 C   0  0  0  0  0  0  0  0  0  0  0  0
    5.9335   -2.4082    0.0000 C   0  0  0  0  0  0  0  0  0  0  0  0
    6.9074   -1.3669    0.0000 C   0  0  0  0  0  0  0  0  0  0  0  0
    6.7237   -2.1712    0.0000 C   0  0  0  0  0  0  0  0  0  0  0  0
  1 18  1  0
  2 13  1  0
  2 16  1  0
  3  6  1  0
  3  7  1  0
  3 10  1  0
  4  8  1  0
  4  9  1  0
  4 11  1  0
  5 10  2  0
  5 14  1  0
  6  8  1  0
  7  9  1  0
 10 12  1  0
 12 13  2  0
 12 15  1  0
 13 17  1  0
 14 16  2  0
 14 20  1  0
 15 18  2  0
 16 21  1  0
 17 19  2  0
 18 19  1  0
 20 22  2  0
 21 23  2  0
 22 23  1  0
M  END
$$$$
