320
     RDKit          2D

 43 50  0  0  1  0  0  0  0  0999 V2000
    3.6245    0.4404    0.0000 O   0  0  0  0  0  0  0  0  0  0  0  0
    2.7811    0.9170    0.0000 O   0  0  0  0  0  0  0  0  0  0  0  0
    3.7828    3.7179    0.0000 O   0  0  0  0  0  0  0  0  0  0  0  0
    5.6557    1.0731    0.0000 O   0  0  0  0  0  0  0  0  0  0  0  0
    4.4339   -1.3764    0.0000 O   0  0  0  0  0  0  0  0  0  0  0  0
    4.2860    1.5939    0.0000 N   0  0  0  0  0  0  0  0  0  0  0  0
    2.9473    2.5586    0.0000 N   0  0  0  0  0  0  0  0  0  0  0  0
    7.3480   -1.3766    0.0000 N   0  0  0  0  0  0  0  0  0  0  0  0
    5.1436   -0.1361    0.0000 N   0  0  0  0  0  0  0  0  0  0  0  0
    8.3230   -4.7727    0.0000 N   0  0  0  0  0  0  0  0  0  0  0  0
    2.8642    1.7378    0.0000 C   0  0  0  0  0  0  0  0  0  0  0  0
    3.5335    1.2554    0.0000 C   0  0  0  0  0  0  0  0  0  0  0  0
    6.6203   -2.6484    0.0000 C   0  0  0  0  0  0  0  0  0  0  0  0
    7.3347   -2.2359    0.0000 C   0  0  0  0  0  0  0  0  0  0  0  0
    2.0622    1.5663    0.0000 C   0  0  0  0  0  0  0  0  0  0  0  0
    4.3690    2.4147    0.0000 C   0  0  0  0  0  0  0  0  0  0  0  0
    4.4275    0.2737    0.0000 C   0  0  0  0  0  0  0  0  0  0  0  0
    5.8628   -1.3708    0.0000 C   0  0  0  0  0  0  0  0  0  0  0  0
    5.8695   -2.2302    0.0000 C   0  0  0  0  0  0  0  0  0  0  0  0
    2.1959    2.8873    0.0000 C   0  0  0  0  0  0  0  0  0  0  0  0
    1.6500    2.2753    0.0000 C   0  0  0  0  0  0  0  0  0  0  0  0
    3.6997    2.8970    0.0000 C   0  0  0  0  0  0  0  0  0  0  0  0
    4.8355    0.9852    0.0000 C   0  0  0  0  0  0  0  0  0  0  0  0
    6.6071   -0.9412    0.0000 C   0  0  0  0  0  0  0  0  0  0  0  0
    8.0492   -2.6484    0.0000 C   0  0  0  0  0  0  0  0  0  0  0  0
    6.6203   -3.4734    0.0000 C   0  0  0  0  0  0  0  0  0  0  0  0
    5.1214    2.7532    0.0000 C   0  0  0  0  0  0  0  0  0  0  0  0
    5.1468   -0.9611    0.0000 C   0  0  0  0  0  0  0  0  0  0  0  0
    7.3347   -3.8859    0.0000 C   0  0  0  0  0  0  0  0  0  0  0  0
    8.0492   -3.4734    0.0000 C   0  0  0  0  0  0  0  0  0  0  0  0
    4.2591   -0.5340    0.0000 C   0  0  0  0  0  0  0  0  0  0  0  0
    8.0672   -0.9724    0.0000 C   0  0  0  0  0  0  0  0  0  0  0  0
    7.3480   -4.7452    0.0000 C   0  0  0  0  0  0  0  0  0  0  0  0
    5.8695   -3.8915    0.0000 C   0  0  0  0  0  0  0  0  0  0  0  0
    8.6572   -4.0238    0.0000 C   0  0  0  0  0  0  0  0  0  0  0  0
    5.2044    3.5740    0.0000 C   0  0  0  0  0  0  0  0  0  0  0  0
    6.6071   -5.1805    0.0000 C   0  0  0  0  0  0  0  0  0  0  0  0
    5.8628   -4.7509    0.0000 C   0  0  0  0  0  0  0  0  0  0  0  0
    5.9569    3.9125    0.0000 C   0  0  0  0  0  0  0  0  0  0  0  0
    4.5351    4.0564    0.0000 C   0  0  0  0  0  0  0  0  0  0  0  0
    6.0399    4.7333    0.0000 C   0  0  0  0  0  0  0  0  0  0  0  0
    4.6182    4.8772    0.0000 C   0  0  0  0  0  0  0  0  0  0  0  0
    5.3706    5.2157    0.0000 C   0  0  0  0  0  0  0  0  0  0  0  0
  1 12  1  0
  1 17  1  0
 12  2  1  6
  3 22  2  0
  4 23  2  0
  5 28  2  0
  6 12  1  0
  6 16  1  0
  6 23  1  0
  7 11  1  0
  7 20  1  0
  7 22  1  0
  8 14  1  0
  8 24  1  0
  8 32  1  0
 17  9  1  0
  9 28  1  0
 10 33  1  0
 10 35  1  0
 11 12  1  0
 11 15  1  6
 13 14  1  0
 13 19  1  1
 13 26  1  0
 14 25  1  6
 15 21  1  0
 16 22  1  0
 16 27  1  6
 17 23  1  0
 17 31  1  1
 18 19  1  0
 18 24  1  0
 18 28  1  1
 20 21  1  0
 25 30  1  0
 26 29  2  0
 26 34  1  0
 27 36  1  0
 29 30  1  0
 29 33  1  0
 30 35  2  0
 33 37  2  0
 34 38  2  0
 36 39  2  0
 36 40  1  0
 37 38  1  0
 39 41  1  0
 40 42  2  0
 41 43  2  0
 42 43  1  0
M  END
$$$$
