841
     RDKit          2D

 22 23  0  0  1  0  0  0  0  0999 V2000
    3.5220    3.8405    0.0000 O   0  0  0  0  0  0  0  0  0  0  0  0
    9.2379   -3.5847    0.0000 O   0  0  0  0  0  0  0  0  0  0  0  0
    2.0930    3.0154    0.0000 O   0  0  0  0  0  0  0  0  0  0  0  0
    5.6655    0.1279    0.0000 N   0  0  0  0  0  0  0  0  0  0  0  0
    5.6655   -0.6971    0.0000 C   0  0  0  0  0  0  0  0  0  0  0  0
    6.3799   -1.1096    0.0000 C   0  0  0  0  0  0  0  0  0  0  0  0
    6.3799   -1.9347    0.0000 C   0  0  0  0  0  0  0  0  0  0  0  0
    4.9509    0.5404    0.0000 C   0  0  0  0  0  0  0  0  0  0  0  0
    4.9509   -1.1096    0.0000 C   0  0  0  0  0  0  0  0  0  0  0  0
    4.9509    1.3654    0.0000 C   0  0  0  0  0  0  0  0  0  0  0  0
    7.0944   -2.3472    0.0000 C   0  0  0  0  0  0  0  0  0  0  0  0
    4.2365    1.7779    0.0000 C   0  0  0  0  0  0  0  0  0  0  0  0
    7.8089   -1.9347    0.0000 C   0  0  0  0  0  0  0  0  0  0  0  0
    7.0944   -3.1722    0.0000 C   0  0  0  0  0  0  0  0  0  0  0  0
    4.2365    2.6029    0.0000 C   0  0  0  0  0  0  0  0  0  0  0  0
    3.5220    1.3654    0.0000 C   0  0  0  0  0  0  0  0  0  0  0  0
    8.5234   -2.3472    0.0000 C   0  0  0  0  0  0  0  0  0  0  0  0
    7.8089   -3.5847    0.0000 C   0  0  0  0  0  0  0  0  0  0  0  0
    3.5220    3.0154    0.0000 C   0  0  0  0  0  0  0  0  0  0  0  0
    8.5234   -3.1722    0.0000 C   0  0  0  0  0  0  0  0  0  0  0  0
    2.8075    1.7779    0.0000 C   0  0  0  0  0  0  0  0  0  0  0  0
    2.8075    2.6029    0.0000 C   0  0  0  0  0  0  0  0  0  0  0  0
  1 19  1  0
  2 20  1  0
  3 22  1  0
  4  5  1  0
  4  8  1  0
  5  6  1  0
  5  9  1  0
  6  7  1  0
  7 11  1  0
  8 10  1  0
 10 12  1  0
 11 13  2  0
 11 14  1  0
 12 15  2  0
 12 16  1  0
 13 17  1  0
 14 18  2  0
 15 19  1  0
 16 21  2  0
 17 20  2  0
 18 20  1  0
 19 22  2  0
 21 22  1  0
M  END
$$$$
