
     RDKit          2D

 77 80  0  0  0  0  0  0  0  0999 V2000
   -0.7403    3.8598    0.0000 C   0  0  0  0  0  0  0  0  0  0  0  0
   -1.5653    3.8598    0.0000 C   0  0  0  0  0  0  0  0  0  0  0  0
   -1.9778    3.1454    0.0000 N   0  0  0  0  0  0  0  0  0  0  0  0
   -0.3278    3.1454    0.0000 C   0  0  0  0  0  0  0  0  0  0  0  0
   -2.8028    3.1454    0.0000 C   0  0  0  0  0  0  0  0  0  0  0  0
   -0.7403    2.4309    0.0000 C   0  0  0  0  0  0  0  0  0  0  0  0
   -0.3278    1.7164    0.0000 C   0  0  0  0  0  0  0  0  0  0  0  0
    0.9096    1.0019    0.0000 O   0  0  0  0  0  0  0  0  0  0  0  0
    0.4971    0.2874    0.0000 C   0  0  0  0  0  0  0  0  0  0  0  0
   -0.3279    0.2874    0.0000 C   0  0  0  0  0  0  0  0  0  0  0  0
    0.9096   -0.4271    0.0000 C   0  0  0  0  0  0  0  0  0  0  0  0
   -3.2153    3.8598    0.0000 O   0  0  0  0  0  0  0  0  0  0  0  0
   -1.9778    4.5743    0.0000 N   0  0  0  0  0  0  0  0  0  0  0  0
   -0.3278    4.5743    0.0000 O   0  0  0  0  0  0  0  0  0  0  0  0
   -0.7403    1.0019    0.0000 N   0  0  0  0  0  0  0  0  0  0  0  0
    0.4972    1.7164    0.0000 O   0  0  0  0  0  0  0  0  0  0  0  0
   -0.7404   -0.4270    0.0000 C   0  0  0  0  0  0  0  0  0  0  0  0
   -1.5654   -0.4270    0.0000 O   0  0  0  0  0  0  0  0  0  0  0  0
   -0.3279   -1.1415    0.0000 N   0  0  0  0  0  0  0  0  0  0  0  0
    0.4419    2.6064    0.0000 N   0  0  0  0  0  0  0  0  0  0  0  0
   -2.8028    4.5743    0.0000 C   0  0  0  0  0  0  0  0  0  0  0  0
   -3.2153    5.2888    0.0000 C   0  0  0  0  0  0  0  0  0  0  0  0
   -4.0403    5.2888    0.0000 N   0  0  0  0  0  0  0  0  0  0  0  0
   -3.2149    2.5830    0.0000 C   0  0  0  0  0  0  0  0  0  0  0  0
   -3.9538    2.9498    0.0000 C   0  0  0  0  0  0  0  0  0  0  0  0
   -4.5310    2.3603    0.0000 C   0  0  0  0  0  0  0  0  0  0  0  0
   -4.1488    1.6293    0.0000 C   0  0  0  0  0  0  0  0  0  0  0  0
   -3.3354    1.7668    0.0000 N   0  0  0  0  0  0  0  0  0  0  0  0
   -4.0914    3.7632    0.0000 O   0  0  0  0  0  0  0  0  0  0  0  0
   -0.6429   -1.9040    0.0000 C   0  0  0  0  0  0  0  0  0  0  0  0
   -0.0151   -2.4392    0.0000 C   0  0  0  0  0  0  0  0  0  0  0  0
    0.6879   -2.0075    0.0000 C   0  0  0  0  0  0  0  0  0  0  0  0
    0.4946   -1.2055    0.0000 C   0  0  0  0  0  0  0  0  0  0  0  0
    1.4504   -2.3225    0.0000 O   0  0  0  0  0  0  0  0  0  0  0  0
   -1.4449   -2.0974    0.0000 C   0  0  0  0  0  0  0  0  0  0  0  0
   -1.6785   -2.8886    0.0000 O   0  0  0  0  0  0  0  0  0  0  0  0
   -2.0134   -1.4994    0.0000 N   0  0  0  0  0  0  0  0  0  0  0  0
   -3.0734    0.9676    0.0000 C   0  0  0  0  0  0  0  0  0  0  0  0
   -3.4538    0.2356    0.0000 C   0  0  0  0  0  0  0  0  0  0  0  0
   -2.2492    1.0042    0.0000 O   0  0  0  0  0  0  0  0  0  0  0  0
   -3.0101   -0.4599    0.0000 N   0  0  0  0  0  0  0  0  0  0  0  0
   -3.3905   -1.1920    0.0000 C   0  0  0  0  0  0  0  0  0  0  0  0
   -2.9468   -1.8875    0.0000 C   0  0  0  0  0  0  0  0  0  0  0  0
   -4.2147   -1.2285    0.0000 O   0  0  0  0  0  0  0  0  0  0  0  0
   -3.1941   -2.6745    0.0000 C   0  0  0  0  0  0  0  0  0  0  0  0
   -3.9994   -2.8538    0.0000 C   0  0  0  0  0  0  0  0  0  0  0  0
   -4.2467   -3.6409    0.0000 C   0  0  0  0  0  0  0  0  0  0  0  0
   -2.6362   -3.2822    0.0000 O   0  0  0  0  0  0  0  0  0  0  0  0
   -4.5573   -2.2461    0.0000 O   0  0  0  0  0  0  0  0  0  0  0  0
   -5.0694   -3.5790    0.0000 C   0  0  0  0  0  0  0  0  0  0  0  0
   -5.5344   -4.2605    0.0000 C   0  0  0  0  0  0  0  0  0  0  0  0
   -5.1766   -5.0039    0.0000 C   0  0  0  0  0  0  0  0  0  0  0  0
   -4.3540   -5.0658    0.0000 C   0  0  0  0  0  0  0  0  0  0  0  0
   -3.8890   -4.3843    0.0000 C   0  0  0  0  0  0  0  0  0  0  0  0
   -5.6416   -5.6855    0.0000 O   0  0  0  0  0  0  0  0  0  0  0  0
   -4.2780    0.1990    0.0000 C   0  0  0  0  0  0  0  0  0  0  0  0
   -4.7218    0.8945    0.0000 C   0  0  0  0  0  0  0  0  0  0  0  0
   -5.5460    0.8580    0.0000 C   0  0  0  0  0  0  0  0  0  0  0  0
   -5.9897    1.5535    0.0000 N   0  0  0  0  0  0  0  0  0  0  0  0
   -4.6585   -0.5330    0.0000 O   0  0  0  0  0  0  0  0  0  0  0  0
    5.4148    3.0496    0.0000 C   0  0  0  0  0  0  0  0  0  0  0  0
    4.7003    2.6371    0.0000 C   0  0  0  0  0  0  0  0  0  0  0  0
    4.7003    1.8121    0.0000 C   0  0  0  0  0  0  0  0  0  0  0  0
    5.4148    1.3996    0.0000 C   0  0  0  0  0  0  0  0  0  0  0  0
    6.1292    1.8121    0.0000 C   0  0  0  0  0  0  0  0  0  0  0  0
    6.1292    2.6371    0.0000 C   0  0  0  0  0  0  0  0  0  0  0  0
    3.9858    3.0496    0.0000 C   0  0  0  0  0  0  0  0  0  0  0  0
    3.2714    2.6371    0.0000 C   0  0  0  0  0  0  0  0  0  0  0  0
    3.2714    1.8121    0.0000 C   0  0  0  0  0  0  0  0  0  0  0  0
    3.9858    1.3996    0.0000 C   0  0  0  0  0  0  0  0  0  0  0  0
    2.5569    3.0496    0.0000 C   0  0  0  0  0  0  0  0  0  0  0  0
    1.8424    2.6371    0.0000 C   0  0  0  0  0  0  0  0  0  0  0  0
    2.5569    1.3996    0.0000 C   0  0  0  0  0  0  0  0  0  0  0  0
    1.1280    3.0496    0.0000 C   0  0  0  0  0  0  0  0  0  0  0  0
    5.4148    0.5746    0.0000 C   0  0  0  0  0  0  0  0  0  0  0  0
    3.9858    0.5746    0.0000 C   0  0  0  0  0  0  0  0  0  0  0  0
    1.1280    3.8746    0.0000 O   0  0  0  0  0  0  0  0  0  0  0  0
  1  2  1  0
  1  4  1  0
  2  3  1  0
  6  4  1  0
  3  5  1  0
  6  7  1  0
  9  8  1  0
  9 11  1  6
  9 10  1  0
  5 12  2  0
  2 13  1  6
  1 14  1  6
  7 15  1  0
 10 15  1  1
  7 16  2  0
 10 17  1  0
 17 18  2  0
 17 19  1  0
  6 20  1  1
 13 21  1  0
 21 22  1  0
 22 23  1  0
 24 28  1  0
 24 25  1  0
 25 26  1  0
 26 27  1  0
 27 28  1  0
 25 29  1  6
 24  5  1  1
 30 19  1  0
 19 33  1  0
 30 31  1  1
 32 31  1  0
 32 33  1  0
 32 34  1  6
 30 35  1  0
 35 36  2  0
 35 37  1  0
 28 38  1  0
 38 40  2  0
 39 41  1  1
 41 42  1  0
 42 44  2  0
 43 37  1  1
 43 42  1  0
 43 45  1  0
 45 46  1  0
 46 47  1  0
 45 48  1  6
 46 49  1  6
 47 50  2  0
 47 54  1  0
 50 51  1  0
 51 52  2  0
 52 53  1  0
 53 54  2  0
 52 55  1  0
 39 56  1  0
 56 57  1  0
 57 58  1  0
 58 59  1  0
 56 60  1  6
 39 38  1  0
 61 62  1  0
 61 66  1  0
 67 62  1  0
 63 64  1  0
 70 63  1  0
 64 65  1  0
 64 75  1  0
 65 66  1  0
 67 68  1  0
 71 68  1  0
 69 70  1  0
 73 69  1  0
 70 76  1  0
 71 72  1  0
 74 72  1  0
 74 77  2  0
 20 74  1  0
M  END
$$$$
