892
     RDKit          2D

 22 22  0  0  0  0  0  0  0  0999 V2000
    4.9509   -1.4438    0.0000 O   0  0  0  0  0  0  0  0  0  0  0  0
    3.5220    1.8563    0.0000 O   0  0  0  0  0  0  0  0  0  0  0  0
    5.6655   -0.2063    0.0000 O   0  0  0  0  0  0  0  0  0  0  0  0
    6.3799   -3.0938    0.0000 N   0  0  0  0  0  0  0  0  0  0  0  0
    2.0930    1.0313    0.0000 N   0  0  0  0  0  0  0  0  0  0  0  0
    5.6655   -2.6813    0.0000 C   0  0  0  0  0  0  0  0  0  0  0  0
    6.3799   -3.9188    0.0000 C   0  0  0  0  0  0  0  0  0  0  0  0
    7.0944   -2.6813    0.0000 C   0  0  0  0  0  0  0  0  0  0  0  0
    5.6655   -1.8563    0.0000 C   0  0  0  0  0  0  0  0  0  0  0  0
    7.0944   -4.3313    0.0000 C   0  0  0  0  0  0  0  0  0  0  0  0
    7.8089   -3.0938    0.0000 C   0  0  0  0  0  0  0  0  0  0  0  0
    4.2365    3.0938    0.0000 C   0  0  0  0  0  0  0  0  0  0  0  0
    4.2365    2.2688    0.0000 C   0  0  0  0  0  0  0  0  0  0  0  0
    4.9509    3.5063    0.0000 C   0  0  0  0  0  0  0  0  0  0  0  0
    3.5220    1.0313    0.0000 C   0  0  0  0  0  0  0  0  0  0  0  0
    4.2365   -0.2063    0.0000 C   0  0  0  0  0  0  0  0  0  0  0  0
    4.9509   -0.6188    0.0000 C   0  0  0  0  0  0  0  0  0  0  0  0
    4.2365    0.6188    0.0000 C   0  0  0  0  0  0  0  0  0  0  0  0
    2.8075    0.6188    0.0000 C   0  0  0  0  0  0  0  0  0  0  0  0
    4.9509    4.3313    0.0000 C   0  0  0  0  0  0  0  0  0  0  0  0
    3.5220   -0.6188    0.0000 C   0  0  0  0  0  0  0  0  0  0  0  0
    2.8075   -0.2063    0.0000 C   0  0  0  0  0  0  0  0  0  0  0  0
  1  9  1  0
  1 17  1  0
  2 13  1  0
  2 15  1  0
  3 17  2  0
  4  6  1  0
  4  7  1  0
  4  8  1  0
  5 19  1  0
  6  9  1  0
  7 10  1  0
  8 11  1  0
 12 13  1  0
 12 14  1  0
 14 20  1  0
 15 18  2  0
 15 19  1  0
 16 17  1  0
 16 18  1  0
 16 21  2  0
 19 22  2  0
 21 22  1  0
M  END
$$$$
