370
     RDKit          2D

 20 23  0  0  1  0  0  0  0  0999 V2000
    3.5989   -0.6297    0.0000 N   0  0  0  0  0  0  0  0  0  0  0  0
    2.2518   -1.5635    0.0000 N   0  0  0  0  0  0  0  0  0  0  0  0
    4.9085   -0.8565    0.0000 N   0  0  0  0  0  0  0  0  0  0  0  0
    2.8852   -0.2861    0.0000 C   0  0  0  0  0  0  0  0  0  0  0  0
    2.1965   -0.7403    0.0000 C   0  0  0  0  0  0  0  0  0  0  0  0
    3.6732   -1.4514    0.0000 C   0  0  0  0  0  0  0  0  0  0  0  0
    2.9951   -1.9214    0.0000 C   0  0  0  0  0  0  0  0  0  0  0  0
    2.7090    0.4861    0.0000 C   0  0  0  0  0  0  0  0  0  0  0  0
    4.3124   -0.2861    0.0000 C   0  0  0  0  0  0  0  0  0  0  0  0
    3.2028    1.1053    0.0000 C   0  0  0  0  0  0  0  0  0  0  0  0
    3.9949    1.1053    0.0000 C   0  0  0  0  0  0  0  0  0  0  0  0
    4.4887    0.4861    0.0000 C   0  0  0  0  0  0  0  0  0  0  0  0
    1.5957   -2.0071    0.0000 C   0  0  0  0  0  0  0  0  0  0  0  0
    1.8914    0.5964    0.0000 C   0  0  0  0  0  0  0  0  0  0  0  0
    2.9133    1.8778    0.0000 C   0  0  0  0  0  0  0  0  0  0  0  0
    5.2732    0.7413    0.0000 C   0  0  0  0  0  0  0  0  0  0  0  0
    1.5841    1.3621    0.0000 C   0  0  0  0  0  0  0  0  0  0  0  0
    2.0984    2.0071    0.0000 C   0  0  0  0  0  0  0  0  0  0  0  0
    5.8823    0.1849    0.0000 C   0  0  0  0  0  0  0  0  0  0  0  0
    5.6987   -0.6195    0.0000 C   0  0  0  0  0  0  0  0  0  0  0  0
  1  4  1  0
  1  6  1  0
  1  9  1  0
  2  5  1  0
  2  7  1  0
  2 13  1  0
  3  9  2  0
  3 20  1  0
  4  5  1  0
  4  8  1  0
  6  7  1  0
  8 10  2  0
  8 14  1  0
  9 12  1  0
 10 11  1  0
 10 15  1  0
 11 12  1  0
 12 16  2  0
 14 17  2  0
 15 18  2  0
 16 19  1  0
 17 18  1  0
 19 20  2  0
M  END
$$$$
