624
     RDKit          2D

 21 24  0  0  1  0  0  0  0  0999 V2000
    7.1353    1.7429    0.0000 O   0  0  0  0  0  0  0  0  0  0  0  0
    1.6498   -1.8105    0.0000 O   0  0  0  0  0  0  0  0  0  0  0  0
    6.0985   -0.1176    0.0000 C   0  0  0  0  0  0  0  0  0  0  0  0
    6.0985    0.7073    0.0000 C   0  0  0  0  0  0  0  0  0  0  0  0
    5.3842   -0.5300    0.0000 C   0  0  0  0  0  0  0  0  0  0  0  0
    4.6697   -0.1176    0.0000 C   0  0  0  0  0  0  0  0  0  0  0  0
    3.9191   -0.5356    0.0000 C   0  0  0  0  0  0  0  0  0  0  0  0
    5.3842    1.1197    0.0000 C   0  0  0  0  0  0  0  0  0  0  0  0
    4.6697    0.7073    0.0000 C   0  0  0  0  0  0  0  0  0  0  0  0
    6.8790    0.9588    0.0000 C   0  0  0  0  0  0  0  0  0  0  0  0
    6.8790   -0.3689    0.0000 C   0  0  0  0  0  0  0  0  0  0  0  0
    5.3974   -1.3891    0.0000 C   0  0  0  0  0  0  0  0  0  0  0  0
    7.3604    0.2949    0.0000 C   0  0  0  0  0  0  0  0  0  0  0  0
    3.9125   -1.3948    0.0000 C   0  0  0  0  0  0  0  0  0  0  0  0
    4.6566   -1.8245    0.0000 C   0  0  0  0  0  0  0  0  0  0  0  0
    6.0985    1.5322    0.0000 C   0  0  0  0  0  0  0  0  0  0  0  0
    3.1546   -0.0703    0.0000 C   0  0  0  0  0  0  0  0  0  0  0  0
    3.9254    0.2893    0.0000 C   0  0  0  0  0  0  0  0  0  0  0  0
    2.3726   -0.5058    0.0000 C   0  0  0  0  0  0  0  0  0  0  0  0
    3.1409   -1.8482    0.0000 C   0  0  0  0  0  0  0  0  0  0  0  0
    2.3657   -1.4007    0.0000 C   0  0  0  0  0  0  0  0  0  0  0  0
 10  1  1  1
  2 21  2  0
  3  4  1  0
  3  5  1  0
  3 11  1  1
  4  8  1  0
  4 10  1  0
  4 16  1  1
  5  6  1  0
  5 12  1  6
  6  7  1  0
  6  9  1  1
  7 14  1  0
  7 17  1  0
  7 18  1  1
  8  9  1  0
 10 13  1  0
 11 13  1  0
 12 15  1  0
 14 15  1  0
 14 20  2  0
 17 19  1  0
 19 21  1  0
 20 21  1  0
M  END
$$$$
