592
     RDKit          2D

  6  6  0  0  0  0  0  0  0  0999 V2000
    2.3645   -0.8250    0.0000 N   0  0  0  0  0  0  0  0  0  0  0  0
    2.3645    0.8250    0.0000 N   0  0  0  0  0  0  0  0  0  0  0  0
    3.0791   -0.4125    0.0000 C   0  0  0  0  0  0  0  0  0  0  0  0
    1.6500   -0.4125    0.0000 C   0  0  0  0  0  0  0  0  0  0  0  0
    3.0791    0.4125    0.0000 C   0  0  0  0  0  0  0  0  0  0  0  0
    1.6500    0.4125    0.0000 C   0  0  0  0  0  0  0  0  0  0  0  0
  1  3  1  0
  1  4  1  0
  2  5  1  0
  2  6  1  0
  3  5  1  0
  4  6  1  0
M  END
$$$$
