205
     RDKit          2D

 17 18  0  0  0  0  0  0  0  0999 V2000
    3.5220    3.0154    0.0000 Cl  0  0  0  0  0  0  0  0  0  0  0  0
    4.2365   -1.5222    0.0000 N   0  0  0  0  0  0  0  0  0  0  0  0
    2.8075   -1.5222    0.0000 N   0  0  0  0  0  0  0  0  0  0  0  0
    2.0930   -0.2846    0.0000 N   0  0  0  0  0  0  0  0  0  0  0  0
    3.5220   -2.7597    0.0000 N   0  0  0  0  0  0  0  0  0  0  0  0
    3.5220   -0.2846    0.0000 C   0  0  0  0  0  0  0  0  0  0  0  0
    4.2365   -0.6971    0.0000 C   0  0  0  0  0  0  0  0  0  0  0  0
    4.9509   -0.2846    0.0000 C   0  0  0  0  0  0  0  0  0  0  0  0
    3.5220    0.5404    0.0000 C   0  0  0  0  0  0  0  0  0  0  0  0
    2.8075   -0.6971    0.0000 C   0  0  0  0  0  0  0  0  0  0  0  0
    2.8075    0.9529    0.0000 C   0  0  0  0  0  0  0  0  0  0  0  0
    4.2365    0.9529    0.0000 C   0  0  0  0  0  0  0  0  0  0  0  0
    5.6655   -0.6971    0.0000 C   0  0  0  0  0  0  0  0  0  0  0  0
    3.5220   -1.9347    0.0000 C   0  0  0  0  0  0  0  0  0  0  0  0
    2.8075    1.7779    0.0000 C   0  0  0  0  0  0  0  0  0  0  0  0
    4.2365    1.7779    0.0000 C   0  0  0  0  0  0  0  0  0  0  0  0
    3.5220    2.1904    0.0000 C   0  0  0  0  0  0  0  0  0  0  0  0
  1 17  1  0
  2  7  2  0
  2 14  1  0
  3 10  1  0
  3 14  2  0
  4 10  1  0
  5 14  1  0
  6  7  1  0
  6  9  1  0
  6 10  2  0
  7  8  1  0
  8 13  1  0
  9 11  2  0
  9 12  1  0
 11 15  1  0
 12 16  2  0
 15 17  2  0
 16 17  1  0
M  END
$$$$
