
     RDKit          2D

 26 29  0  0  0  0  0  0  0  0999 V2000
   -3.6241    0.0884    0.0000 C   0  0  0  0  0  0  0  0  0  0  0  0
   -4.3386   -0.3241    0.0000 C   0  0  0  0  0  0  0  0  0  0  0  0
   -4.3386   -1.1491    0.0000 C   0  0  0  0  0  0  0  0  0  0  0  0
   -3.6241   -1.5616    0.0000 C   0  0  0  0  0  0  0  0  0  0  0  0
   -2.9096   -1.1491    0.0000 C   0  0  0  0  0  0  0  0  0  0  0  0
   -2.9096   -0.3241    0.0000 C   0  0  0  0  0  0  0  0  0  0  0  0
   -2.1952    0.0884    0.0000 C   0  0  0  0  0  0  0  0  0  0  0  0
   -2.1952   -1.5616    0.0000 C   0  0  0  0  0  0  0  0  0  0  0  0
   -1.4807   -1.1491    0.0000 C   0  0  0  0  0  0  0  0  0  0  0  0
   -1.4807   -0.3241    0.0000 C   0  0  0  0  0  0  0  0  0  0  0  0
   -1.4807    1.3259    0.0000 C   0  0  0  0  0  0  0  0  0  0  0  0
   -2.1952    0.9134    0.0000 C   0  0  0  0  0  0  0  0  0  0  0  0
   -0.7662    0.0884    0.0000 N   0  0  0  0  0  0  0  0  0  0  0  0
   -0.7662    0.9134    0.0000 C   0  0  0  0  0  0  0  0  0  0  0  0
   -2.4087   -2.3585    0.0000 C   0  0  0  0  0  0  0  0  0  0  0  0
   -3.4106   -2.3585    0.0000 N   0  0  0  0  0  0  0  0  0  0  0  0
   -1.4807    2.1509    0.0000 C   0  0  0  0  0  0  0  0  0  0  0  0
   -0.0518   -0.3241    0.0000 C   0  0  0  0  0  0  0  0  0  0  0  0
   -0.7662    2.5634    0.0000 N   0  0  0  0  0  0  0  0  0  0  0  0
   -0.0518    2.1509    0.0000 C   0  0  0  0  0  0  0  0  0  0  0  0
    0.6627    2.5634    0.0000 C   0  0  0  0  0  0  0  0  0  0  0  0
    1.3772    2.1509    0.0000 C   0  0  0  0  0  0  0  0  0  0  0  0
   -2.1952    2.5634    0.0000 O   0  0  0  0  0  0  0  0  0  0  0  0
   -0.0518    1.3259    0.0000 C   0  0  0  0  0  0  0  0  0  0  0  0
    0.6627    0.9134    0.0000 O   0  0  0  0  0  0  0  0  0  0  0  0
   -3.8231   -3.0730    0.0000 C   0  0  0  0  0  0  0  0  0  0  0  0
  1  2  2  0
  1  6  1  0
  2  3  1  0
  3  4  2  0
  4  5  1  0
  7  6  1  0
  6  5  2  0
  5  8  1  0
  8  9  1  0
 10  9  1  6
 10 13  1  0
  7 10  1  0
 12  7  2  0
 11 12  1  0
 11 14  1  0
 13 14  1  0
  8 15  2  0
  4 16  1  0
 16 15  1  0
 11 17  1  1
 13 18  1  0
 17 19  1  0
 19 20  1  0
 20 21  1  0
 21 22  1  0
 17 23  2  0
 20 24  1  0
 24 25  1  0
 16 26  1  0
M  END
$$$$
