723
     RDKit          2D

 15 15  0  0  1  0  0  0  0  0999 V2000
    3.0791    1.3159    0.0000 O   0  0  0  0  0  0  0  0  0  0  0  0
    2.3645    0.0784    0.0000 O   0  0  0  0  0  0  0  0  0  0  0  0
    5.2224   -1.5717    0.0000 O   0  0  0  0  0  0  0  0  0  0  0  0
    4.5080    2.1409    0.0000 N   0  0  0  0  0  0  0  0  0  0  0  0
    3.7935    0.9034    0.0000 C   0  0  0  0  0  0  0  0  0  0  0  0
    4.5080    1.3159    0.0000 C   0  0  0  0  0  0  0  0  0  0  0  0
    3.7935    0.0784    0.0000 C   0  0  0  0  0  0  0  0  0  0  0  0
    5.2224    0.9034    0.0000 C   0  0  0  0  0  0  0  0  0  0  0  0
    3.0791   -0.3341    0.0000 C   0  0  0  0  0  0  0  0  0  0  0  0
    4.5080   -0.3341    0.0000 C   0  0  0  0  0  0  0  0  0  0  0  0
    4.5080   -1.1592    0.0000 C   0  0  0  0  0  0  0  0  0  0  0  0
    3.0791   -1.1592    0.0000 C   0  0  0  0  0  0  0  0  0  0  0  0
    3.7935   -1.5717    0.0000 C   0  0  0  0  0  0  0  0  0  0  0  0
    1.6500   -0.3341    0.0000 C   0  0  0  0  0  0  0  0  0  0  0  0
    5.2224   -2.3967    0.0000 C   0  0  0  0  0  0  0  0  0  0  0  0
  1  5  1  0
  2  9  1  0
  2 14  1  0
  3 11  1  0
  3 15  1  0
  4  6  1  0
  5  6  1  0
  5  7  1  0
  6  8  1  0
  7  9  2  0
  7 10  1  0
  9 12  1  0
 10 11  2  0
 11 13  1  0
 12 13  2  0
M  END
$$$$
