
     RDKit          2D

 42 46  0  0  1  0  0  0  0  0999 V2000
    8.0182   -7.9689    0.0000 N   0  0  0  0  0  0  0  0  0  0  0  0
    7.1932   -7.9689    0.0000 C   0  0  0  0  0  0  0  0  0  0  0  0
    7.1932   -7.1439    0.0000 C   0  0  0  0  0  0  0  0  0  0  0  0
    8.0182   -7.1439    0.0000 C   0  0  0  0  0  0  0  0  0  0  0  0
   11.5906   -8.3813    0.0000 C   0  0  0  0  0  0  0  0  0  0  0  0
    8.7327   -8.3813    0.0000 C   0  0  0  0  0  0  0  0  0  0  0  0
   12.3443   -8.0458    0.0000 N   0  0  0  0  0  0  0  0  0  0  0  0
   11.6768   -9.2018    0.0000 N   0  0  0  0  0  0  0  0  0  0  0  0
   12.4838   -9.3734    0.0000 N   0  0  0  0  0  0  0  0  0  0  0  0
   12.8963   -8.6589    0.0000 N   0  0  0  0  0  0  0  0  0  0  0  0
    6.4788   -6.7313    0.0000 N   0  0  0  0  0  0  0  0  0  0  0  0
    3.6209   -6.7313    0.0000 C   0  0  0  0  0  0  0  0  0  0  0  0
    8.7327   -6.7313    0.0000 S   0  0  0  0  0  0  0  0  0  0  0  0
    2.9064   -7.1438    0.0000 C   0  0  0  0  0  0  0  0  0  0  0  0
    9.4472   -7.9689    0.0000 C   0  0  0  0  0  0  0  0  0  0  0  0
    5.7643   -7.1438    0.0000 C   0  0  0  0  0  0  0  0  0  0  0  0
    4.3354   -7.1438    0.0000 N   0  0  0  0  0  0  0  0  0  0  0  0
    5.0498   -6.7313    0.0000 C   0  0  0  0  0  0  0  0  0  0  0  0
    2.1920   -6.7313    0.0000 C   0  0  0  0  0  0  0  0  0  0  0  0
    8.7327   -9.2063    0.0000 C   0  0  0  0  0  0  0  0  0  0  0  0
   10.8761   -7.9689    0.0000 S   0  0  0  0  0  0  0  0  0  0  0  0
    2.9064   -7.9688    0.0000 C   0  0  0  0  0  0  0  0  0  0  0  0
    2.1920   -8.3813    0.0000 N   0  0  0  0  0  0  0  0  0  0  0  0
    9.4472   -7.1439    0.0000 C   0  0  0  0  0  0  0  0  0  0  0  0
    1.4775   -7.1438    0.0000 C   0  0  0  0  0  0  0  0  0  0  0  0
   10.1616   -8.3813    0.0000 C   0  0  0  0  0  0  0  0  0  0  0  0
    5.0498   -5.9063    0.0000 C   0  0  0  0  0  0  0  0  0  0  0  0
    3.6209   -5.9063    0.0000 O   0  0  0  0  0  0  0  0  0  0  0  0
    5.7643   -7.9688    0.0000 O   0  0  0  0  0  0  0  0  0  0  0  0
    9.4472   -9.6189    0.0000 O   0  0  0  0  0  0  0  0  0  0  0  0
    1.4775   -7.9688    0.0000 C   0  0  0  0  0  0  0  0  0  0  0  0
    5.7643   -5.4939    0.0000 C   0  0  0  0  0  0  0  0  0  0  0  0
    4.3354   -5.4938    0.0000 C   0  0  0  0  0  0  0  0  0  0  0  0
    2.1920   -5.9063    0.0000 O   0  0  0  0  0  0  0  0  0  0  0  0
   12.5158   -7.2388    0.0000 C   0  0  0  0  0  0  0  0  0  0  0  0
    8.0182   -9.6189    0.0000 O   0  0  0  0  0  0  0  0  0  0  0  0
    5.0499   -4.2563    0.0000 C   0  0  0  0  0  0  0  0  0  0  0  0
    4.3354   -4.6688    0.0000 C   0  0  0  0  0  0  0  0  0  0  0  0
    5.7643   -4.6689    0.0000 C   0  0  0  0  0  0  0  0  0  0  0  0
    5.0499   -3.4313    0.0000 O   0  0  0  0  0  0  0  0  0  0  0  0
    0.7630   -8.3813    0.0000 C   0  0  0  0  0  0  0  0  0  0  0  0
    6.6201   -8.5420    0.0000 O   0  0  0  0  0  0  0  0  0  0  0  0
  2  1  1  0
  4  1  1  0
  6  1  1  0
  3  2  1  0
  4  3  1  0
  3 11  1  1
  4 13  1  1
 21  5  1  0
  7  5  1  0
  8  5  2  0
 15  6  2  0
 20  6  1  0
 10  7  1  0
 35  7  1  0
  9  8  1  0
 10  9  2  0
 16 11  1  0
 17 12  1  0
 14 12  1  0
 28 12  2  0
 24 13  1  0
 19 14  2  0
 22 14  1  0
 24 15  1  0
 26 15  1  0
 18 16  1  0
 29 16  2  0
 18 17  1  6
 18 27  1  0
 25 19  1  0
 34 19  1  0
 30 20  2  0
 36 20  1  0
 26 21  1  0
 23 22  2  0
 31 23  1  0
 31 25  2  0
 32 27  2  0
 33 27  1  0
 41 31  1  0
 39 32  1  0
 38 33  2  0
 38 37  1  0
 40 37  1  0
 39 37  2  0
  2 42  2  0
M  END
$$$$
