762
     RDKit          2D

 43 49  0  0  1  0  0  0  0  0999 V2000
    3.6847   -1.2013    0.0000 O   0  0  0  0  0  0  0  0  0  0  0  0
    5.4619    6.3835    0.0000 O   0  0  0  0  0  0  0  0  0  0  0  0
    4.9873   -1.7886    0.0000 O   0  0  0  0  0  0  0  0  0  0  0  0
    6.6037    4.3753    0.0000 O   0  0  0  0  0  0  0  0  0  0  0  0
    3.3054    5.0889    0.0000 O   0  0  0  0  0  0  0  0  0  0  0  0
    6.9222    6.3636    0.0000 O   0  0  0  0  0  0  0  0  0  0  0  0
    2.8100   -4.8793    0.0000 N   0  0  0  0  0  0  0  0  0  0  0  0
    3.8273   -2.6231    0.0000 N   0  0  0  0  0  0  0  0  0  0  0  0
    4.0198    3.8514    0.0000 N   0  0  0  0  0  0  0  0  0  0  0  0
    5.0738    1.9534    0.0000 N   0  0  0  0  0  0  0  0  0  0  0  0
    3.1491   -4.1272    0.0000 C   0  0  0  0  0  0  0  0  0  0  0  0
    2.6673   -3.4575    0.0000 C   0  0  0  0  0  0  0  0  0  0  0  0
    3.9700   -4.0449    0.0000 C   0  0  0  0  0  0  0  0  0  0  0  0
    1.9891   -4.9617    0.0000 C   0  0  0  0  0  0  0  0  0  0  0  0
    3.2918   -5.5490    0.0000 C   0  0  0  0  0  0  0  0  0  0  0  0
    3.0065   -2.7054    0.0000 C   0  0  0  0  0  0  0  0  0  0  0  0
    4.3091   -3.2928    0.0000 C   0  0  0  0  0  0  0  0  0  0  0  0
    1.6500   -5.7138    0.0000 C   0  0  0  0  0  0  0  0  0  0  0  0
    2.9527   -6.3011    0.0000 C   0  0  0  0  0  0  0  0  0  0  0  0
    2.1318   -6.3835    0.0000 C   0  0  0  0  0  0  0  0  0  0  0  0
    4.1664   -1.8710    0.0000 C   0  0  0  0  0  0  0  0  0  0  0  0
    4.7343    3.4389    0.0000 C   0  0  0  0  0  0  0  0  0  0  0  0
    3.7460    2.5521    0.0000 C   0  0  0  0  0  0  0  0  0  0  0  0
    3.4118    3.3010    0.0000 C   0  0  0  0  0  0  0  0  0  0  0  0
    5.4488    4.6764    0.0000 C   0  0  0  0  0  0  0  0  0  0  0  0
    6.1996    5.0945    0.0000 C   0  0  0  0  0  0  0  0  0  0  0  0
    4.5617    2.6371    0.0000 C   0  0  0  0  0  0  0  0  0  0  0  0
    4.7343    5.0889    0.0000 C   0  0  0  0  0  0  0  0  0  0  0  0
    3.3859    1.7775    0.0000 C   0  0  0  0  0  0  0  0  0  0  0  0
    5.4488    3.8514    0.0000 C   0  0  0  0  0  0  0  0  0  0  0  0
    4.0198    4.6764    0.0000 C   0  0  0  0  0  0  0  0  0  0  0  0
    3.8820    1.0821    0.0000 C   0  0  0  0  0  0  0  0  0  0  0  0
    7.0245    5.0850    0.0000 C   0  0  0  0  0  0  0  0  0  0  0  0
    4.7211    5.9481    0.0000 C   0  0  0  0  0  0  0  0  0  0  0  0
    4.7317    1.1706    0.0000 C   0  0  0  0  0  0  0  0  0  0  0  0
    6.2062    5.9538    0.0000 C   0  0  0  0  0  0  0  0  0  0  0  0
    2.5644    1.7014    0.0000 C   0  0  0  0  0  0  0  0  0  0  0  0
    4.0238   -0.4492    0.0000 C   0  0  0  0  0  0  0  0  0  0  0  0
    3.5069    0.2751    0.0000 C   0  0  0  0  0  0  0  0  0  0  0  0
    5.2652    0.4585    0.0000 C   0  0  0  0  0  0  0  0  0  0  0  0
    4.9088   -0.3570    0.0000 C   0  0  0  0  0  0  0  0  0  0  0  0
    7.4286    4.3657    0.0000 C   0  0  0  0  0  0  0  0  0  0  0  0
    2.2195    0.9520    0.0000 C   0  0  0  0  0  0  0  0  0  0  0  0
  1 21  1  0
  1 38  1  0
  2 34  1  0
  2 36  1  0
  3 21  2  0
 26  4  1  1
  5 31  2  0
  6 36  2  0
  7 11  1  0
  7 14  1  0
  7 15  1  0
  8 16  1  0
  8 17  1  0
  8 21  1  0
  9 22  1  0
  9 24  1  0
  9 31  1  0
 10 27  2  0
 10 35  1  0
 11 12  1  0
 11 13  1  0
 12 16  1  0
 13 17  1  0
 14 18  1  0
 15 19  1  0
 18 20  1  0
 19 20  1  0
 22 27  1  0
 22 30  2  0
 23 24  1  0
 23 27  1  0
 23 29  2  0
 25 26  1  0
 25 28  2  0
 25 30  1  0
 26 33  1  0
 26 36  1  0
 28 31  1  0
 28 34  1  0
 29 32  1  0
 29 37  1  0
 32 35  2  0
 32 39  1  0
 33 42  1  0
 35 40  1  0
 37 43  1  0
 38 39  2  0
 38 41  1  0
 40 41  2  0
M  END
$$$$
