770
     RDKit          2D

 25 25  0  0  1  0  0  0  0  0999 V2000
    9.8471   -1.7365    0.0000 O   0  0  0  0  0  0  0  0  0  0  0  0
    7.4975   -3.4435    0.0000 O   0  0  0  0  0  0  0  0  0  0  0  0
    8.3950    0.9685    0.0000 O   0  0  0  0  0  0  0  0  0  0  0  0
    2.1365   -3.1799    0.0000 O   0  0  0  0  0  0  0  0  0  0  0  0
    2.5781   -1.8208    0.0000 O   0  0  0  0  0  0  0  0  0  0  0  0
    7.7275   -1.9915    0.0000 C   0  0  0  0  0  0  0  0  0  0  0  0
    8.3950   -1.5066    0.0000 C   0  0  0  0  0  0  0  0  0  0  0  0
    9.0624   -1.9915    0.0000 C   0  0  0  0  0  0  0  0  0  0  0  0
    8.8075   -2.7761    0.0000 C   0  0  0  0  0  0  0  0  0  0  0  0
    6.9429   -1.7365    0.0000 C   0  0  0  0  0  0  0  0  0  0  0  0
    7.9825   -2.7761    0.0000 C   0  0  0  0  0  0  0  0  0  0  0  0
    6.3298   -2.2886    0.0000 C   0  0  0  0  0  0  0  0  0  0  0  0
    8.3950   -0.6815    0.0000 C   0  0  0  0  0  0  0  0  0  0  0  0
    5.5451   -2.0337    0.0000 C   0  0  0  0  0  0  0  0  0  0  0  0
    9.1094   -0.2690    0.0000 C   0  0  0  0  0  0  0  0  0  0  0  0
    4.9320   -2.5857    0.0000 C   0  0  0  0  0  0  0  0  0  0  0  0
    9.1094    0.5560    0.0000 C   0  0  0  0  0  0  0  0  0  0  0  0
    9.8239    0.9685    0.0000 C   0  0  0  0  0  0  0  0  0  0  0  0
    4.1474   -2.3308    0.0000 C   0  0  0  0  0  0  0  0  0  0  0  0
    9.8239    1.7935    0.0000 C   0  0  0  0  0  0  0  0  0  0  0  0
    3.5343   -2.8828    0.0000 C   0  0  0  0  0  0  0  0  0  0  0  0
   10.5385    2.2060    0.0000 C   0  0  0  0  0  0  0  0  0  0  0  0
   10.5385    3.0310    0.0000 C   0  0  0  0  0  0  0  0  0  0  0  0
    2.7496   -2.6278    0.0000 C   0  0  0  0  0  0  0  0  0  0  0  0
   11.2529    3.4435    0.0000 C   0  0  0  0  0  0  0  0  0  0  0  0
  8  1  1  6
  2 11  2  0
 17  3  1  1
  4 24  1  0
  5 24  2  0
  6  7  1  0
  6 10  1  6
  6 11  1  0
  7  8  1  0
  7 13  1  1
  8  9  1  0
  9 11  1  0
 10 12  1  0
 12 14  1  0
 13 15  2  3
 14 16  1  0
 15 17  1  0
 16 19  1  0
 17 18  1  0
 18 20  1  0
 19 21  1  0
 20 22  1  0
 21 24  1  0
 22 23  1  0
 23 25  1  0
M  END
$$$$
