598
     RDKit          2D

 24 25  0  0  1  0  0  0  0  0999 V2000
    5.6655    1.1880    0.0000 O   0  0  0  0  0  0  0  0  0  0  0  0
    2.0930    2.4256    0.0000 O   0  0  0  0  0  0  0  0  0  0  0  0
    2.8075    3.6631    0.0000 O   0  0  0  0  0  0  0  0  0  0  0  0
    5.6655   -0.4620    0.0000 N   0  0  0  0  0  0  0  0  0  0  0  0
    4.2365    3.6631    0.0000 N   0  0  0  0  0  0  0  0  0  0  0  0
    5.6655   -1.2870    0.0000 C   0  0  0  0  0  0  0  0  0  0  0  0
    6.3799   -1.6995    0.0000 C   0  0  0  0  0  0  0  0  0  0  0  0
    4.9509   -0.0495    0.0000 C   0  0  0  0  0  0  0  0  0  0  0  0
    6.3799   -2.5246    0.0000 C   0  0  0  0  0  0  0  0  0  0  0  0
    4.9509    0.7755    0.0000 C   0  0  0  0  0  0  0  0  0  0  0  0
    4.9509   -1.6995    0.0000 C   0  0  0  0  0  0  0  0  0  0  0  0
    4.2365    1.1880    0.0000 C   0  0  0  0  0  0  0  0  0  0  0  0
    7.0944   -2.9371    0.0000 C   0  0  0  0  0  0  0  0  0  0  0  0
    4.2365    2.0130    0.0000 C   0  0  0  0  0  0  0  0  0  0  0  0
    3.5220    0.7755    0.0000 C   0  0  0  0  0  0  0  0  0  0  0  0
    7.0944   -3.7621    0.0000 C   0  0  0  0  0  0  0  0  0  0  0  0
    7.8089   -2.5246    0.0000 C   0  0  0  0  0  0  0  0  0  0  0  0
    3.5220    2.4256    0.0000 C   0  0  0  0  0  0  0  0  0  0  0  0
    2.8075    1.1880    0.0000 C   0  0  0  0  0  0  0  0  0  0  0  0
    2.8075    2.0130    0.0000 C   0  0  0  0  0  0  0  0  0  0  0  0
    7.8089   -4.1746    0.0000 C   0  0  0  0  0  0  0  0  0  0  0  0
    8.5234   -2.9371    0.0000 C   0  0  0  0  0  0  0  0  0  0  0  0
    8.5234   -3.7621    0.0000 C   0  0  0  0  0  0  0  0  0  0  0  0
    3.5220    3.2506    0.0000 C   0  0  0  0  0  0  0  0  0  0  0  0
  1 10  1  0
  2 20  1  0
  3 24  2  0
  4  6  1  0
  4  8  1  0
  5 24  1  0
  6  7  1  0
  6 11  1  0
  7  9  1  0
  8 10  1  0
  9 13  1  0
 10 12  1  0
 12 14  2  0
 12 15  1  0
 13 16  2  0
 13 17  1  0
 14 18  1  0
 15 19  2  0
 16 21  1  0
 17 22  2  0
 18 20  2  0
 18 24  1  0
 19 20  1  0
 21 23  2  0
 22 23  1  0
M  END
$$$$
