734
     RDKit          2D

 30 34  0  0  0  0  0  0  0  0999 V2000
    1.6500   -0.1193    0.0000 F   0  0  0  0  0  0  0  0  0  0  0  0
    3.9340   -1.9522    0.0000 O   0  0  0  0  0  0  0  0  0  0  0  0
    9.8223   -0.5514    0.0000 O   0  0  0  0  0  0  0  0  0  0  0  0
    6.9643    0.2736    0.0000 N   0  0  0  0  0  0  0  0  0  0  0  0
   10.5367    0.6861    0.0000 N   0  0  0  0  0  0  0  0  0  0  0  0
    4.7359   -1.7796    0.0000 N   0  0  0  0  0  0  0  0  0  0  0  0
    9.8223    1.9236    0.0000 N   0  0  0  0  0  0  0  0  0  0  0  0
    5.5353   -0.5514    0.0000 C   0  0  0  0  0  0  0  0  0  0  0  0
    5.5353    0.2736    0.0000 C   0  0  0  0  0  0  0  0  0  0  0  0
    6.2498   -0.9640    0.0000 C   0  0  0  0  0  0  0  0  0  0  0  0
    6.2498    0.6861    0.0000 C   0  0  0  0  0  0  0  0  0  0  0  0
    6.9643   -0.5514    0.0000 C   0  0  0  0  0  0  0  0  0  0  0  0
    7.6788    0.6861    0.0000 C   0  0  0  0  0  0  0  0  0  0  0  0
    4.8208   -0.9640    0.0000 C   0  0  0  0  0  0  0  0  0  0  0  0
    8.3932    0.2736    0.0000 C   0  0  0  0  0  0  0  0  0  0  0  0
    9.1078    0.6861    0.0000 C   0  0  0  0  0  0  0  0  0  0  0  0
    4.0719   -0.6297    0.0000 C   0  0  0  0  0  0  0  0  0  0  0  0
   11.2742    0.2450    0.0000 C   0  0  0  0  0  0  0  0  0  0  0  0
   12.0218    0.6689    0.0000 C   0  0  0  0  0  0  0  0  0  0  0  0
   10.5367    1.5111    0.0000 C   0  0  0  0  0  0  0  0  0  0  0  0
   12.0218    1.5283    0.0000 C   0  0  0  0  0  0  0  0  0  0  0  0
   11.2742    1.9522    0.0000 C   0  0  0  0  0  0  0  0  0  0  0  0
    9.8223    0.2736    0.0000 C   0  0  0  0  0  0  0  0  0  0  0  0
    9.1078    1.5111    0.0000 C   0  0  0  0  0  0  0  0  0  0  0  0
    3.5209   -1.2438    0.0000 C   0  0  0  0  0  0  0  0  0  0  0  0
    3.8156    0.1545    0.0000 C   0  0  0  0  0  0  0  0  0  0  0  0
    8.3932    1.9236    0.0000 C   0  0  0  0  0  0  0  0  0  0  0  0
    2.7136   -1.0736    0.0000 C   0  0  0  0  0  0  0  0  0  0  0  0
    3.0083    0.3246    0.0000 C   0  0  0  0  0  0  0  0  0  0  0  0
    2.4573   -0.2894    0.0000 C   0  0  0  0  0  0  0  0  0  0  0  0
  1 30  1  0
  2  6  1  0
  2 25  1  0
  3 23  2  0
  4 11  1  0
  4 12  1  0
  4 13  1  0
  5 18  1  0
  5 20  1  0
  5 23  1  0
  6 14  2  0
  7 20  2  0
  7 24  1  0
  8  9  1  0
  8 10  1  0
  8 14  1  0
  9 11  1  0
 10 12  1  0
 13 15  1  0
 14 17  1  0
 15 16  1  0
 16 23  1  0
 16 24  2  0
 17 25  2  0
 17 26  1  0
 18 19  1  0
 19 21  1  0
 20 22  1  0
 21 22  1  0
 24 27  1  0
 25 28  1  0
 26 29  2  0
 28 30  2  0
 29 30  1  0
M  END
$$$$
