823
     RDKit          2D

 28 31  0  0  1  0  0  0  0  0999 V2000
    8.9774    0.8591    0.0000 O   0  0  0  0  0  0  0  0  0  0  0  0
    3.0790   -2.3944    0.0000 O   0  0  0  0  0  0  0  0  0  0  0  0
    9.8152   -0.2985    0.0000 O   0  0  0  0  0  0  0  0  0  0  0  0
    2.3693   -1.1541    0.0000 O   0  0  0  0  0  0  0  0  0  0  0  0
    7.5284    0.1238    0.0000 C   0  0  0  0  0  0  0  0  0  0  0  0
    7.5284   -0.7012    0.0000 C   0  0  0  0  0  0  0  0  0  0  0  0
    6.8139   -1.1137    0.0000 C   0  0  0  0  0  0  0  0  0  0  0  0
    6.0994   -0.7012    0.0000 C   0  0  0  0  0  0  0  0  0  0  0  0
    8.3090    0.3753    0.0000 C   0  0  0  0  0  0  0  0  0  0  0  0
    6.8139    0.5363    0.0000 C   0  0  0  0  0  0  0  0  0  0  0  0
    8.3090   -0.9526    0.0000 C   0  0  0  0  0  0  0  0  0  0  0  0
    6.0994    0.1238    0.0000 C   0  0  0  0  0  0  0  0  0  0  0  0
    5.3487   -1.1193    0.0000 C   0  0  0  0  0  0  0  0  0  0  0  0
    8.7906   -0.2887    0.0000 C   0  0  0  0  0  0  0  0  0  0  0  0
    6.8272   -1.9729    0.0000 C   0  0  0  0  0  0  0  0  0  0  0  0
    7.5284    0.9489    0.0000 C   0  0  0  0  0  0  0  0  0  0  0  0
    5.3420   -1.9786    0.0000 C   0  0  0  0  0  0  0  0  0  0  0  0
    6.0862   -2.4083    0.0000 C   0  0  0  0  0  0  0  0  0  0  0  0
    4.5840   -0.6539    0.0000 C   0  0  0  0  0  0  0  0  0  0  0  0
    3.8019   -1.0895    0.0000 C   0  0  0  0  0  0  0  0  0  0  0  0
    8.0555    1.1604    0.0000 C   0  0  0  0  0  0  0  0  0  0  0  0
    4.5703   -2.4322    0.0000 C   0  0  0  0  0  0  0  0  0  0  0  0
    3.7951   -1.9846    0.0000 C   0  0  0  0  0  0  0  0  0  0  0  0
    9.7304    0.5222    0.0000 C   0  0  0  0  0  0  0  0  0  0  0  0
    7.8019    1.9454    0.0000 C   0  0  0  0  0  0  0  0  0  0  0  0
   10.3987    1.0059    0.0000 C   0  0  0  0  0  0  0  0  0  0  0  0
    2.3661   -1.9791    0.0000 C   0  0  0  0  0  0  0  0  0  0  0  0
    1.6500   -2.3888    0.0000 C   0  0  0  0  0  0  0  0  0  0  0  0
  9  1  1  0
  1 24  1  0
 23  2  1  1
  2 27  1  0
  3 24  2  0
  4 27  2  0
  5  6  1  0
  5  9  1  0
  5 10  1  0
  5 16  1  1
  6  7  1  0
  6 11  1  1
  7  8  1  0
  7 15  1  6
  8 12  1  1
  8 13  1  0
  9 14  1  0
  9 21  1  6
 10 12  1  0
 11 14  1  0
 13 17  1  0
 13 19  1  6
 15 18  1  0
 17 18  1  0
 17 22  2  0
 19 20  1  0
 20 23  1  0
 21 25  3  0
 22 23  1  0
 24 26  1  0
 27 28  1  0
M  END
$$$$
