441
     RDKit          2D

 18 19  0  0  1  0  0  0  0  0999 V2000
    5.1206   -1.3156    0.0000 F   0  0  0  0  0  0  0  0  0  0  0  0
    4.8209   -0.3932    0.0000 F   0  0  0  0  0  0  0  0  0  0  0  0
    3.0011   -1.0607    0.0000 O   0  0  0  0  0  0  0  0  0  0  0  0
    4.5660   -2.5127    0.0000 O   0  0  0  0  0  0  0  0  0  0  0  0
    1.9506   -2.4265    0.0000 O   0  0  0  0  0  0  0  0  0  0  0  0
    2.2396    0.2492    0.0000 O   0  0  0  0  0  0  0  0  0  0  0  0
    3.6685    0.2492    0.0000 N   0  0  0  0  0  0  0  0  0  0  0  0
    2.9541    1.4867    0.0000 N   0  0  0  0  0  0  0  0  0  0  0  0
    3.6685    2.7242    0.0000 N   0  0  0  0  0  0  0  0  0  0  0  0
    4.0810   -1.8453    0.0000 C   0  0  0  0  0  0  0  0  0  0  0  0
    4.3361   -1.0607    0.0000 C   0  0  0  0  0  0  0  0  0  0  0  0
    3.2560   -1.8453    0.0000 C   0  0  0  0  0  0  0  0  0  0  0  0
    3.6685   -0.5758    0.0000 C   0  0  0  0  0  0  0  0  0  0  0  0
    2.7711   -2.5127    0.0000 C   0  0  0  0  0  0  0  0  0  0  0  0
    4.3831    0.6617    0.0000 C   0  0  0  0  0  0  0  0  0  0  0  0
    2.9541    0.6617    0.0000 C   0  0  0  0  0  0  0  0  0  0  0  0
    4.3831    1.4867    0.0000 C   0  0  0  0  0  0  0  0  0  0  0  0
    3.6685    1.8992    0.0000 C   0  0  0  0  0  0  0  0  0  0  0  0
  1 11  1  0
  2 11  1  0
  3 12  1  0
  3 13  1  0
 10  4  1  6
  5 14  1  0
  6 16  2  0
 13  7  1  1
  7 15  1  0
  7 16  1  0
  8 16  1  0
  8 18  2  0
  9 18  1  0
 10 11  1  0
 10 12  1  0
 11 13  1  0
 12 14  1  1
 15 17  2  0
 17 18  1  0
M  END
$$$$
