614
     RDKit          2D

 16 17  0  0  0  0  0  0  0  0999 V2000
    7.6453   -0.4299    0.0000 O   0  0  0  0  0  0  0  0  0  0  0  0
    3.7154   -0.1723    0.0000 O   0  0  0  0  0  0  0  0  0  0  0  0
    6.3353   -1.0973    0.0000 O   0  0  0  0  0  0  0  0  0  0  0  0
    1.6501    0.6098    0.0000 O   0  0  0  0  0  0  0  0  0  0  0  0
    2.0917   -0.7493    0.0000 O   0  0  0  0  0  0  0  0  0  0  0  0
    6.5653    0.3549    0.0000 N   0  0  0  0  0  0  0  0  0  0  0  0
    5.7806    0.6098    0.0000 N   0  0  0  0  0  0  0  0  0  0  0  0
    2.2632    0.0577    0.0000 N   0  0  0  0  0  0  0  0  0  0  0  0
    7.2328    0.8397    0.0000 C   0  0  0  0  0  0  0  0  0  0  0  0
    7.9003    0.3549    0.0000 C   0  0  0  0  0  0  0  0  0  0  0  0
    6.8203   -0.4299    0.0000 C   0  0  0  0  0  0  0  0  0  0  0  0
    4.3828    0.3127    0.0000 C   0  0  0  0  0  0  0  0  0  0  0  0
    5.1675    0.0577    0.0000 C   0  0  0  0  0  0  0  0  0  0  0  0
    4.1279    1.0973    0.0000 C   0  0  0  0  0  0  0  0  0  0  0  0
    3.0479    0.3127    0.0000 C   0  0  0  0  0  0  0  0  0  0  0  0
    3.3028    1.0973    0.0000 C   0  0  0  0  0  0  0  0  0  0  0  0
  1 10  1  0
  1 11  1  0
  2 12  1  0
  2 15  1  0
  3 11  2  0
  4  8  1  0
  5  8  2  0
  6  7  1  0
  6  9  1  0
  6 11  1  0
  7 13  2  3
  8 15  1  0
  9 10  1  0
 12 13  1  0
 12 14  2  0
 14 16  1  0
 15 16  2  0
M  CHG  2   4  -1   8   1
M  END
$$$$
