672
     RDKit          2D

 17 17  0  0  0  0  0  0  0  0999 V2000
    2.4751   -3.5063    0.0000 Cl  0  0  0  0  0  0  0  0  0  0  0  0
    2.4751   -0.2063    0.0000 S   0  0  0  0  0  0  0  0  0  0  0  0
    1.6500   -0.2063    0.0000 O   0  0  0  0  0  0  0  0  0  0  0  0
    3.3001   -0.2063    0.0000 O   0  0  0  0  0  0  0  0  0  0  0  0
    3.9041    0.6188    0.0000 O   0  0  0  0  0  0  0  0  0  0  0  0
    2.4751    0.6188    0.0000 N   0  0  0  0  0  0  0  0  0  0  0  0
    3.1895    1.8563    0.0000 N   0  0  0  0  0  0  0  0  0  0  0  0
    3.9041    2.2688    0.0000 C   0  0  0  0  0  0  0  0  0  0  0  0
    2.4751   -1.0313    0.0000 C   0  0  0  0  0  0  0  0  0  0  0  0
    3.9041    3.0938    0.0000 C   0  0  0  0  0  0  0  0  0  0  0  0
    3.1895    1.0313    0.0000 C   0  0  0  0  0  0  0  0  0  0  0  0
    3.1895   -1.4438    0.0000 C   0  0  0  0  0  0  0  0  0  0  0  0
    1.7606   -1.4438    0.0000 C   0  0  0  0  0  0  0  0  0  0  0  0
    4.6185    3.5063    0.0000 C   0  0  0  0  0  0  0  0  0  0  0  0
    3.1895   -2.2688    0.0000 C   0  0  0  0  0  0  0  0  0  0  0  0
    1.7606   -2.2688    0.0000 C   0  0  0  0  0  0  0  0  0  0  0  0
    2.4751   -2.6813    0.0000 C   0  0  0  0  0  0  0  0  0  0  0  0
  1 17  1  0
  2  3  2  0
  2  4  2  0
  2  6  1  0
  2  9  1  0
  5 11  2  0
  6 11  1  0
  7  8  1  0
  7 11  1  0
  8 10  1  0
  9 12  2  0
  9 13  1  0
 10 14  1  0
 12 15  1  0
 13 16  2  0
 15 17  2  0
 16 17  1  0
M  END
$$$$
