708
     RDKit          2D

 27 29  0  0  0  0  0  0  0  0999 V2000
    3.2530   -3.1354    0.0000 S   0  0  0  0  0  0  0  0  0  0  0  0
    2.0625    1.7766    0.0000 O   0  0  0  0  0  0  0  0  0  0  0  0
    2.4751    2.4911    0.0000 O   0  0  0  0  0  0  0  0  0  0  0  0
    3.3001   -0.5879    0.0000 N   0  0  0  0  0  0  0  0  0  0  0  0
    3.7126    1.7766    0.0000 N   0  0  0  0  0  0  0  0  0  0  0  0
    3.3001    1.0621    0.0000 C   0  0  0  0  0  0  0  0  0  0  0  0
    2.5856    0.6496    0.0000 C   0  0  0  0  0  0  0  0  0  0  0  0
    4.0145    0.6496    0.0000 C   0  0  0  0  0  0  0  0  0  0  0  0
    2.5856   -0.1754    0.0000 C   0  0  0  0  0  0  0  0  0  0  0  0
    4.0145   -0.1754    0.0000 C   0  0  0  0  0  0  0  0  0  0  0  0
    2.8876    1.7766    0.0000 C   0  0  0  0  0  0  0  0  0  0  0  0
    3.3001   -1.4129    0.0000 C   0  0  0  0  0  0  0  0  0  0  0  0
    4.5376    1.7766    0.0000 C   0  0  0  0  0  0  0  0  0  0  0  0
    3.3001    2.4911    0.0000 C   0  0  0  0  0  0  0  0  0  0  0  0
    2.5856   -1.8254    0.0000 C   0  0  0  0  0  0  0  0  0  0  0  0
    3.7126    3.2055    0.0000 C   0  0  0  0  0  0  0  0  0  0  0  0
    4.9501    2.4911    0.0000 C   0  0  0  0  0  0  0  0  0  0  0  0
    4.9501    1.0621    0.0000 C   0  0  0  0  0  0  0  0  0  0  0  0
    2.5856   -2.6505    0.0000 C   0  0  0  0  0  0  0  0  0  0  0  0
    1.6500    2.4911    0.0000 C   0  0  0  0  0  0  0  0  0  0  0  0
    3.3001    3.9201    0.0000 C   0  0  0  0  0  0  0  0  0  0  0  0
    5.7751    2.4911    0.0000 C   0  0  0  0  0  0  0  0  0  0  0  0
    5.7751    1.0621    0.0000 C   0  0  0  0  0  0  0  0  0  0  0  0
    1.9182   -3.1354    0.0000 C   0  0  0  0  0  0  0  0  0  0  0  0
    6.1876    1.7766    0.0000 C   0  0  0  0  0  0  0  0  0  0  0  0
    2.1731   -3.9201    0.0000 C   0  0  0  0  0  0  0  0  0  0  0  0
    2.9981   -3.9201    0.0000 C   0  0  0  0  0  0  0  0  0  0  0  0
  1 19  1  0
  1 27  1  0
  2 11  1  0
  2 20  1  0
  3 14  2  0
  4  9  1  0
  4 10  1  0
  4 12  1  0
  5  6  1  0
  5 13  1  0
  5 14  1  0
  6  7  1  0
  6  8  1  0
  6 11  1  0
  7  9  1  0
  8 10  1  0
 12 15  1  0
 13 17  2  0
 13 18  1  0
 14 16  1  0
 15 19  1  0
 16 21  1  0
 17 22  1  0
 18 23  2  0
 19 24  2  0
 22 25  2  0
 23 25  1  0
 24 26  1  0
 26 27  2  0
M  END
$$$$
