 
     RDKit          2D

 26 26  0  0  0  0  0  0  0  0999 V2000
   18.2793  -11.1684    0.0000 C   0  0  0  0  0  0  0  0  0  0  0  0
   18.2793  -12.0050    0.0000 C   0  0  0  0  0  0  0  0  0  0  0  0
   18.9904  -10.7501    0.0000 C   0  0  0  0  0  0  0  0  0  0  0  0
   17.5264  -10.7501    0.0000 C   0  0  0  0  0  0  0  0  0  0  0  0
   18.9904  -12.4651    0.0000 C   0  0  0  0  0  0  0  0  0  0  0  0
   19.7434  -11.1684    0.0000 C   0  0  0  0  0  0  0  0  0  0  0  0
   16.8153  -11.1684    0.0000 C   0  0  0  0  0  0  0  0  0  0  0  0
   17.5264   -9.9135    0.0000 O   0  0  0  0  0  0  0  0  0  0  0  0
   19.7434  -12.0050    0.0000 C   0  0  0  0  0  0  0  0  0  0  0  0
   16.0624  -10.7501    0.0000 C   0  0  0  0  0  0  0  0  0  0  0  0
   20.4545  -12.4233    0.0000 N   0  0  0  0  0  0  0  0  0  0  0  0
   15.3513  -11.1684    0.0000 C   0  0  0  0  0  0  0  0  0  0  0  0
   21.2074  -12.0050    0.0000 S   0  0  0  0  0  0  0  0  0  0  0  0
   14.6402  -10.7501    0.0000 N   0  0  0  0  0  0  0  0  0  0  0  0
   21.9185  -12.4233    0.0000 C   0  0  0  0  0  0  0  0  0  0  0  0
   20.4545  -11.5867    0.0000 O   0  0  0  0  0  0  0  0  0  0  0  0
   21.8348  -11.5867    0.0000 O   0  0  0  0  0  0  0  0  0  0  0  0
   14.6402   -9.9135    0.0000 C   0  0  0  0  0  0  0  0  0  0  0  0
   15.3513   -9.4952    0.0000 C   0  0  0  0  0  0  0  0  0  0  0  0
   13.8873  -11.1684    0.0000 C   0  0  0  0  0  0  0  0  0  0  0  0
   13.1762  -10.7501    0.0000 C   0  0  0  0  0  0  0  0  0  0  0  0
   12.4651  -11.1684    0.0000 C   0  0  0  0  0  0  0  0  0  0  0  0
   11.7540  -10.7501    0.0000 C   0  0  0  0  0  0  0  0  0  0  0  0
   11.0011  -11.1684    0.0000 C   0  0  0  0  0  0  0  0  0  0  0  0
   10.2900  -10.7501    0.0000 C   0  0  0  0  0  0  0  0  0  0  0  0
    9.5789  -11.1684    0.0000 C   0  0  0  0  0  0  0  0  0  0  0  0
  1  2  2  0
  1  3  1  0
  1  4  1  0
  2  5  1  0
  3  6  2  0
  4  7  1  0
  4  8  1  0
  5  9  2  0
  7 10  1  0
  9 11  1  0
 10 12  1  0
 11 13  1  0
 12 14  1  0
 13 15  1  0
 13 16  2  0
 13 17  2  0
 14 18  1  0
  6  9  1  0
 18 19  1  0
 14 20  1  0
 20 21  1  0
 21 22  1  0
 22 23  1  0
 23 24  1  0
 24 25  1  0
 25 26  1  0
M  END
$$$$
