834
     RDKit          2D

 32 36  0  0  1  0  0  0  0  0999 V2000
    7.1785    1.0770    0.0000 O   0  0  0  0  0  0  0  0  0  0  0  0
    2.2020   -2.4777    0.0000 O   0  0  0  0  0  0  0  0  0  0  0  0
    2.3645    1.6905    0.0000 N   0  0  0  0  0  0  0  0  0  0  0  0
    6.6514    0.0405    0.0000 C   0  0  0  0  0  0  0  0  0  0  0  0
    6.6514   -0.7845    0.0000 C   0  0  0  0  0  0  0  0  0  0  0  0
    5.9370   -1.1970    0.0000 C   0  0  0  0  0  0  0  0  0  0  0  0
    7.4321    0.2919    0.0000 C   0  0  0  0  0  0  0  0  0  0  0  0
    5.9370    0.4530    0.0000 C   0  0  0  0  0  0  0  0  0  0  0  0
    7.4321   -1.0359    0.0000 C   0  0  0  0  0  0  0  0  0  0  0  0
    7.9135   -0.3720    0.0000 C   0  0  0  0  0  0  0  0  0  0  0  0
    5.2224    0.0405    0.0000 C   0  0  0  0  0  0  0  0  0  0  0  0
    5.2224   -0.7845    0.0000 C   0  0  0  0  0  0  0  0  0  0  0  0
    5.9502   -2.0563    0.0000 C   0  0  0  0  0  0  0  0  0  0  0  0
    6.6514    0.8655    0.0000 C   0  0  0  0  0  0  0  0  0  0  0  0
    4.4717   -1.2027    0.0000 C   0  0  0  0  0  0  0  0  0  0  0  0
    5.2093   -2.4917    0.0000 C   0  0  0  0  0  0  0  0  0  0  0  0
    4.5080    0.4530    0.0000 C   0  0  0  0  0  0  0  0  0  0  0  0
    4.4651   -2.0620    0.0000 C   0  0  0  0  0  0  0  0  0  0  0  0
    8.1003    0.7757    0.0000 C   0  0  0  0  0  0  0  0  0  0  0  0
    3.7070   -0.7373    0.0000 C   0  0  0  0  0  0  0  0  0  0  0  0
    3.6933   -2.5156    0.0000 C   0  0  0  0  0  0  0  0  0  0  0  0
    2.9250   -1.1728    0.0000 C   0  0  0  0  0  0  0  0  0  0  0  0
    3.7935    0.0405    0.0000 C   0  0  0  0  0  0  0  0  0  0  0  0
    4.5080    1.2780    0.0000 C   0  0  0  0  0  0  0  0  0  0  0  0
    2.9181   -2.0680    0.0000 C   0  0  0  0  0  0  0  0  0  0  0  0
    8.7687    1.2595    0.0000 C   0  0  0  0  0  0  0  0  0  0  0  0
    3.0790    0.4530    0.0000 C   0  0  0  0  0  0  0  0  0  0  0  0
    3.7935    1.6905    0.0000 C   0  0  0  0  0  0  0  0  0  0  0  0
    3.0790    1.2780    0.0000 C   0  0  0  0  0  0  0  0  0  0  0  0
    9.4369    1.7433    0.0000 C   0  0  0  0  0  0  0  0  0  0  0  0
    2.3645    2.5156    0.0000 C   0  0  0  0  0  0  0  0  0  0  0  0
    1.6500    1.2780    0.0000 C   0  0  0  0  0  0  0  0  0  0  0  0
  7  1  1  1
  2 25  2  0
  3 29  1  0
  3 31  1  0
  3 32  1  0
  4  5  1  0
  4  7  1  0
  4  8  1  0
  4 14  1  1
  5  6  1  0
  5  9  1  1
  6 12  1  0
  6 13  1  6
  7 10  1  0
  7 19  1  0
  8 11  1  0
  9 10  1  0
 11 12  1  0
 11 17  1  1
 12 15  2  0
 13 16  1  0
 15 18  1  0
 15 20  1  0
 16 18  1  0
 17 23  2  0
 17 24  1  0
 18 21  2  0
 19 26  3  0
 20 22  1  0
 21 25  1  0
 22 25  1  0
 23 27  1  0
 24 28  2  0
 26 30  1  0
 27 29  2  0
 28 29  1  0
M  END
$$$$
