
     RDKit          2D

 24 28  0  0  0  0  0  0  0  0999 V2000
    0.9481   -1.5735    0.0000 C   0  0  0  0  0  0  0  0  0  0  0  0
    1.6626   -1.1611    0.0000 N   0  0  0  0  0  0  0  0  0  0  0  0
    1.6626   -0.3360    0.0000 C   0  0  0  0  0  0  0  0  0  0  0  0
    0.9481    0.0764    0.0000 C   0  0  0  0  0  0  0  0  0  0  0  0
    0.2337   -0.3360    0.0000 C   0  0  0  0  0  0  0  0  0  0  0  0
    0.2337   -1.1611    0.0000 C   0  0  0  0  0  0  0  0  0  0  0  0
    2.3771    0.0764    0.0000 C   0  0  0  0  0  0  0  0  0  0  0  0
    3.0916   -0.3360    0.0000 C   0  0  0  0  0  0  0  0  0  0  0  0
    3.0916   -1.1611    0.0000 C   0  0  0  0  0  0  0  0  0  0  0  0
    2.3771   -1.5735    0.0000 C   0  0  0  0  0  0  0  0  0  0  0  0
    3.8060   -1.5734    0.0000 O   0  0  0  0  0  0  0  0  0  0  0  0
   -0.1787    0.3783    0.0000 O   0  0  0  0  0  0  0  0  0  0  0  0
   -1.0037    0.3783    0.0000 C   0  0  0  0  0  0  0  0  0  0  0  0
   -1.4162    1.0928    0.0000 C   0  0  0  0  0  0  0  0  0  0  0  0
   -1.4162   -0.3360    0.0000 O   0  0  0  0  0  0  0  0  0  0  0  0
   -1.0807    1.8465    0.0000 C   0  0  0  0  0  0  0  0  0  0  0  0
   -1.6938    2.3986    0.0000 N   0  0  0  0  0  0  0  0  0  0  0  0
   -2.4082    1.9861    0.0000 C   0  0  0  0  0  0  0  0  0  0  0  0
   -2.2367    1.1791    0.0000 C   0  0  0  0  0  0  0  0  0  0  0  0
   -3.1929    2.2410    0.0000 C   0  0  0  0  0  0  0  0  0  0  0  0
   -3.8060    1.6890    0.0000 C   0  0  0  0  0  0  0  0  0  0  0  0
   -3.6344    0.8820    0.0000 C   0  0  0  0  0  0  0  0  0  0  0  0
   -2.8498    0.6270    0.0000 C   0  0  0  0  0  0  0  0  0  0  0  0
    1.5891   -1.9258    0.0000 C   0  0  0  0  0  0  0  0  0  0  0  0
  1  2  1  0
  3  4  1  6
  4  5  1  0
  5  6  1  0
  1  6  1  6
 10  2  1  0
  2  3  1  0
  3  7  1  0
  8  7  1  6
  8  9  1  0
  9 10  1  0
  9 11  2  0
  5 12  1  6
 12 13  1  0
 13 14  1  0
 13 15  2  0
 14 16  2  0
 14 19  1  0
 16 17  1  0
 17 18  1  0
 18 20  1  0
 19 18  2  0
 23 19  1  0
 20 21  2  0
 21 22  1  0
 22 23  2  0
  1 24  1  0
  8 24  1  0
M  END
$$$$
