 
     RDKit          2D

 15 16  0  0  0  0  0  0  0  0999 V2000
   15.5389  -10.1715    0.0000 C   0  0  0  0  0  0  0  0  0  0  0  0
   16.2531   -9.7609    0.0000 N   0  0  0  0  0  0  0  0  0  0  0  0
   15.5389  -10.9965    0.0000 C   0  0  0  0  0  0  0  0  0  0  0  0
   14.8283   -9.7609    0.0000 N   0  0  0  0  0  0  0  0  0  0  0  0
   16.9673  -10.1752    0.0000 C   0  0  0  0  0  0  0  0  0  0  0  0
   16.2531   -8.9396    0.0000 C   0  0  0  0  0  0  0  0  0  0  0  0
   14.8283  -11.4107    0.0000 C   0  0  0  0  0  0  0  0  0  0  0  0
   14.1105  -10.1715    0.0000 C   0  0  0  0  0  0  0  0  0  0  0  0
   17.6815   -9.7644    0.0000 C   0  0  0  0  0  0  0  0  0  0  0  0
   16.9673   -8.5253    0.0000 C   0  0  0  0  0  0  0  0  0  0  0  0
   14.1105  -10.9965    0.0000 N   0  0  0  0  0  0  0  0  0  0  0  0
   14.8283  -12.2392    0.0000 N   0  0  0  0  0  0  0  0  0  0  0  0
   13.3963   -9.7609    0.0000 N   0  0  0  0  0  0  0  0  0  0  0  0
   17.6815   -8.9396    0.0000 C   0  0  0  0  0  0  0  0  0  0  0  0
   12.9178  -11.5000    0.0000 O   0  0  0  0  0  0  0  0  0  0  0  0
  1  2  1  0
  1  3  2  0
  1  4  1  0
  2  5  1  0
  2  6  1  0
  3  7  1  0
  4  8  2  0
  5  9  1  0
  6 10  1  0
  7 11  2  0
  7 12  1  0
  8 13  1  0
  9 14  1  0
 11 15  1  0
  8 11  1  0
 10 14  1  0
M  CHG  2  11   1  15  -1
M  END
$$$$
