2092
     RDKit          2D

 28 30  0  0  1  0  0  0  0  0999 V2000
    2.2021    0.5338    0.0000 O   0  0  0  0  0  0  0  0  0  0  0  0
    3.6703   -0.3681    0.0000 O   0  0  0  0  0  0  0  0  0  0  0  0
   11.5841   -0.8006    0.0000 O   0  0  0  0  0  0  0  0  0  0  0  0
   11.5841    0.8893    0.0000 O   0  0  0  0  0  0  0  0  0  0  0  0
    4.3847    0.8694    0.0000 N   0  0  0  0  0  0  0  0  0  0  0  0
    7.2427    0.8694    0.0000 N   0  0  0  0  0  0  0  0  0  0  0  0
    8.6717    0.8694    0.0000 N   0  0  0  0  0  0  0  0  0  0  0  0
    7.9571   -0.3681    0.0000 N   0  0  0  0  0  0  0  0  0  0  0  0
    8.6717   -1.6057    0.0000 N   0  0  0  0  0  0  0  0  0  0  0  0
    2.9558    0.8694    0.0000 C   0  0  0  0  0  0  0  0  0  0  0  0
    2.8696    1.6899    0.0000 C   0  0  0  0  0  0  0  0  0  0  0  0
    2.0625    1.8614    0.0000 C   0  0  0  0  0  0  0  0  0  0  0  0
    1.6500    1.1469    0.0000 C   0  0  0  0  0  0  0  0  0  0  0  0
    3.6703    0.4569    0.0000 C   0  0  0  0  0  0  0  0  0  0  0  0
    5.0993    0.4569    0.0000 C   0  0  0  0  0  0  0  0  0  0  0  0
    5.8137    0.8694    0.0000 C   0  0  0  0  0  0  0  0  0  0  0  0
    6.5282    0.4569    0.0000 C   0  0  0  0  0  0  0  0  0  0  0  0
    7.9571    0.4569    0.0000 C   0  0  0  0  0  0  0  0  0  0  0  0
    7.2427    1.6944    0.0000 C   0  0  0  0  0  0  0  0  0  0  0  0
    9.3861   -0.3681    0.0000 C   0  0  0  0  0  0  0  0  0  0  0  0
    9.3861    0.4569    0.0000 C   0  0  0  0  0  0  0  0  0  0  0  0
    8.6717   -0.7806    0.0000 C   0  0  0  0  0  0  0  0  0  0  0  0
   10.1236   -0.8093    0.0000 C   0  0  0  0  0  0  0  0  0  0  0  0
   10.1236    0.8979    0.0000 C   0  0  0  0  0  0  0  0  0  0  0  0
   10.8712   -0.3853    0.0000 C   0  0  0  0  0  0  0  0  0  0  0  0
   10.8712    0.4741    0.0000 C   0  0  0  0  0  0  0  0  0  0  0  0
   11.5809   -1.6256    0.0000 C   0  0  0  0  0  0  0  0  0  0  0  0
   11.5809    1.7143    0.0000 C   0  0  0  0  0  0  0  0  0  0  0  0
  1 10  1  0
  1 13  1  0
  2 14  2  0
  3 25  1  0
  3 27  1  0
  4 26  1  0
  4 28  1  0
  5 14  1  0
  5 15  1  0
  6 17  1  0
  6 18  1  0
  6 19  1  0
  7 18  2  0
  7 21  1  0
  8 18  1  0
  8 22  2  0
  9 22  1  0
 10 11  1  0
 10 14  1  0
 11 12  1  0
 12 13  1  0
 15 16  1  0
 16 17  1  0
 20 21  2  0
 20 22  1  0
 20 23  1  0
 21 24  1  0
 23 25  2  0
 24 26  2  0
 25 26  1  0
M  END
$$$$
