339
     RDKit          2D

  9  9  0  0  0  0  0  0  0  0999 V2000
    2.8075   -1.2375    0.0000 O   0  0  0  0  0  0  0  0  0  0  0  0
    4.2365   -0.4125    0.0000 N   0  0  0  0  0  0  0  0  0  0  0  0
    4.2365    1.2375    0.0000 N   0  0  0  0  0  0  0  0  0  0  0  0
    2.0930    0.0000    0.0000 N   0  0  0  0  0  0  0  0  0  0  0  0
    3.5220    0.0000    0.0000 C   0  0  0  0  0  0  0  0  0  0  0  0
    3.5220    0.8250    0.0000 C   0  0  0  0  0  0  0  0  0  0  0  0
    2.8075   -0.4125    0.0000 C   0  0  0  0  0  0  0  0  0  0  0  0
    4.9509    0.0000    0.0000 C   0  0  0  0  0  0  0  0  0  0  0  0
    4.9509    0.8250    0.0000 C   0  0  0  0  0  0  0  0  0  0  0  0
  1  7  2  0
  2  5  2  0
  2  8  1  0
  3  6  2  0
  3  9  1  0
  4  7  1  0
  5  6  1  0
  5  7  1  0
  8  9  2  0
M  END
$$$$
