
     RDKit          2D

 93104  0  0  1  0  0  0  0  0999 V2000
    3.1464   -1.5849    0.0000 C   0  0  0  0  0  0  0  0  0  0  0  0
    3.3491   -0.7163    0.0000 C   0  0  0  0  0  0  0  0  0  0  0  0
    2.6395   -0.9340    0.0000 C   0  0  0  0  0  0  0  0  0  0  0  0
    1.8223   -1.0476    0.0000 N   0  0  0  0  0  0  0  0  0  0  0  0
    1.3154   -0.3967    0.0000 C   0  0  0  0  0  0  0  0  0  0  0  0
    1.6451    0.4147    0.0000 O   0  0  0  0  0  0  0  0  0  0  0  0
    0.4982   -0.5103    0.0000 C   0  0  0  0  0  0  0  0  0  0  0  0
   -0.0087    0.1406    0.0000 C   0  0  0  0  0  0  0  0  0  0  0  0
   -0.8258    0.0271    0.0000 C   0  0  0  0  0  0  0  0  0  0  0  0
   -0.4979    0.8556    0.0000 C   0  0  0  0  0  0  0  0  0  0  0  0
   -1.3980    0.6214    0.0000 C   0  0  0  0  0  0  0  0  0  0  0  0
   -1.2051    1.4712    0.0000 C   0  0  0  0  0  0  0  0  0  0  0  0
   -1.5256    2.2702    0.0000 C   0  0  0  0  0  0  0  0  0  0  0  0
   -2.3422    2.3871    0.0000 N   0  0  0  0  0  0  0  0  0  0  0  0
   -1.0160    2.9190    0.0000 O   0  0  0  0  0  0  0  0  0  0  0  0
   -2.1401    0.2609    0.0000 C   0  0  0  0  0  0  0  0  0  0  0  0
   -2.0265   -0.5563    0.0000 N   0  0  0  0  0  0  0  0  0  0  0  0
   -1.2143   -0.7008    0.0000 C   0  0  0  0  0  0  0  0  0  0  0  0
   -0.9071   -1.7190    0.0000 C   0  0  0  0  0  0  0  0  0  0  0  0
   -0.0224   -1.7831    0.0000 C   0  0  0  0  0  0  0  0  0  0  0  0
   -1.1357   -2.5117    0.0000 C   0  0  0  0  0  0  0  0  0  0  0  0
   -1.9603   -2.5392    0.0000 N   0  0  0  0  0  0  0  0  0  0  0  0
   -2.1889   -3.3319    0.0000 C   0  0  0  0  0  0  0  0  0  0  0  0
   -3.2336   -3.5309    0.0000 C   0  0  0  0  0  0  0  0  0  0  0  0
   -3.9981   -3.2207    0.0000 C   0  0  0  0  0  0  0  0  0  0  0  0
   -3.9393   -2.3978    0.0000 N   0  0  0  0  0  0  0  0  0  0  0  0
   -4.7037   -2.0876    0.0000 C   0  0  0  0  0  0  0  0  0  0  0  0
   -4.7924   -1.0278    0.0000 C   0  0  0  0  0  0  0  0  0  0  0  0
   -5.6080   -0.7900    0.0000 C   0  0  0  0  0  0  0  0  0  0  0  0
   -4.4040   -0.2999    0.0000 C   0  0  0  0  0  0  0  0  0  0  0  0
   -3.5918   -0.4444    0.0000 N   0  0  0  0  0  0  0  0  0  0  0  0
   -3.2033    0.2834    0.0000 C   0  0  0  0  0  0  0  0  0  0  0  0
   -2.6312    0.9310    0.0000 C   0  0  0  0  0  0  0  0  0  0  0  0
   -3.7755    0.8777    0.0000 C   0  0  0  0  0  0  0  0  0  0  0  0
   -3.4115    1.6615    0.0000 C   0  0  0  0  0  0  0  0  0  0  0  0
   -4.0574    1.7165    0.0000 C   0  0  0  0  0  0  0  0  0  0  0  0
   -3.8886    2.5712    0.0000 C   0  0  0  0  0  0  0  0  0  0  0  0
   -4.5096    3.1143    0.0000 N   0  0  0  0  0  0  0  0  0  0  0  0
   -3.1078    2.8375    0.0000 O   0  0  0  0  0  0  0  0  0  0  0  0
   -4.5176    0.5172    0.0000 C   0  0  0  0  0  0  0  0  0  0  0  0
   -5.3431    0.9400    0.0000 C   0  0  0  0  0  0  0  0  0  0  0  0
   -6.0698    0.4846    0.0000 C   0  0  0  0  0  0  0  0  0  0  0  0
   -6.7988    0.8709    0.0000 C   0  0  0  0  0  0  0  0  0  0  0  0
   -6.8287    1.6954    0.0000 N   0  0  0  0  0  0  0  0  0  0  0  0
   -7.4978    0.4328    0.0000 O   0  0  0  0  0  0  0  0  0  0  0  0
   -0.5439   -2.0644    0.0000 Co  0  0  0  0  0  6  0  0  0  0  0  0
   -0.1983   -2.9331    0.0000 C   0  0  0  0  0  0  0  0  0  0  0  0
   -0.4789   -3.8215    0.0000 N   0  0  0  0  0  0  0  0  0  0  0  0
    8.7983   -4.3844    0.0000 N   0  0  0  0  0  0  0  0  0  0  0  0
    7.9737   -4.4119    0.0000 C   0  0  0  0  0  0  0  0  0  0  0  0
    7.6928   -3.6362    0.0000 N   0  0  0  0  0  0  0  0  0  0  0  0
    6.9001   -3.4076    0.0000 C   0  0  0  0  0  0  0  0  0  0  0  0
    6.2492   -3.9146    0.0000 O   0  0  0  0  0  0  0  0  0  0  0  0
    5.5659   -3.4522    0.0000 C   0  0  0  0  0  0  0  0  0  0  0  0
    4.7473   -3.7435    0.0000 C   0  0  0  0  0  0  0  0  0  0  0  0
    4.6125   -4.6111    0.0000 O   0  0  0  0  0  0  0  0  0  0  0  0
    5.7945   -2.6595    0.0000 C   0  0  0  0  0  0  0  0  0  0  0  0
    5.2876   -2.0086    0.0000 O   0  0  0  0  0  0  0  0  0  0  0  0
    4.4705   -2.1222    0.0000 P   0  0  0  0  0  0  0  0  0  0  0  0
    5.0120   -1.5589    0.0000 O   0  0  0  0  0  0  0  0  0  0  0  0
    4.8580   -1.2187    0.0000 O   0  0  0  0  0  0  0  0  0  0  0  0
    3.9635   -1.4713    0.0000 O   0  0  0  0  0  0  0  0  0  0  0  0
    6.6191   -2.6319    0.0000 C   0  0  0  0  0  0  0  0  0  0  0  0
    6.9507   -1.7675    0.0000 O   0  0  0  0  0  0  0  0  0  0  0  0
    8.3436   -3.1293    0.0000 C   0  0  0  0  0  0  0  0  0  0  0  0
    8.4024   -2.3064    0.0000 C   0  0  0  0  0  0  0  0  0  0  0  0
    9.1445   -1.9459    0.0000 C   0  0  0  0  0  0  0  0  0  0  0  0
    9.2124   -1.0456    0.0000 C   0  0  0  0  0  0  0  0  0  0  0  0
    9.8277   -2.4082    0.0000 C   0  0  0  0  0  0  0  0  0  0  0  0
   10.6477   -2.0382    0.0000 C   0  0  0  0  0  0  0  0  0  0  0  0
    9.7689   -3.2311    0.0000 C   0  0  0  0  0  0  0  0  0  0  0  0
    9.0269   -3.5917    0.0000 C   0  0  0  0  0  0  0  0  0  0  0  0
   -5.2350   -2.7188    0.0000 C   0  0  0  0  0  0  0  0  0  0  0  0
   -5.9040   -2.2018    0.0000 C   0  0  0  0  0  0  0  0  0  0  0  0
   -6.0899   -3.0121    0.0000 C   0  0  0  0  0  0  0  0  0  0  0  0
   -6.9329   -2.8749    0.0000 C   0  0  0  0  0  0  0  0  0  0  0  0
   -7.4549   -3.5138    0.0000 N   0  0  0  0  0  0  0  0  0  0  0  0
   -7.2253   -2.1034    0.0000 O   0  0  0  0  0  0  0  0  0  0  0  0
   -4.7989   -3.4191    0.0000 C   0  0  0  0  0  0  0  0  0  0  0  0
   -5.1330   -4.3176    0.0000 C   0  0  0  0  0  0  0  0  0  0  0  0
   -4.5464   -4.9548    0.0000 C   0  0  0  0  0  0  0  0  0  0  0  0
   -4.7928   -5.7422    0.0000 C   0  0  0  0  0  0  0  0  0  0  0  0
   -4.2341   -6.3492    0.0000 N   0  0  0  0  0  0  0  0  0  0  0  0
   -5.5978   -5.9226    0.0000 O   0  0  0  0  0  0  0  0  0  0  0  0
   -1.5056   -3.7943    0.0000 C   0  0  0  0  0  0  0  0  0  0  0  0
   -1.1456   -4.5800    0.0000 C   0  0  0  0  0  0  0  0  0  0  0  0
   -2.0561   -4.4907    0.0000 C   0  0  0  0  0  0  0  0  0  0  0  0
   -0.8548   -3.2873    0.0000 C   0  0  0  0  0  0  0  0  0  0  0  0
    0.1570   -3.5312    0.0000 C   0  0  0  0  0  0  0  0  0  0  0  0
    0.4187   -4.4062    0.0000 C   0  0  0  0  0  0  0  0  0  0  0  0
    1.2215   -4.5966    0.0000 C   0  0  0  0  0  0  0  0  0  0  0  0
    1.7877   -3.9966    0.0000 N   0  0  0  0  0  0  0  0  0  0  0  0
    1.4579   -5.3870    0.0000 O   0  0  0  0  0  0  0  0  0  0  0  0
  1  2  1  6
  1  3  1  0
  3  4  1  0
  4  5  1  0
  5  6  2  0
  5  7  1  0
  7  8  1  0
  8  9  1  0
  9 10  1  6
  9 11  1  0
 11 12  1  6
 12 13  1  0
 13 14  1  0
 13 15  2  0
 11 16  1  0
 16 17  1  1
 17 18  1  0
  9 18  1  0
 18 19  2  0
 19 20  1  0
 19 21  1  0
 21 22  2  0
 22 23  1  0
 23 24  2  0
 24 25  1  0
 25 26  2  0
 26 27  1  0
 27 28  2  0
 28 29  1  0
 28 30  1  0
 30 31  2  0
 31 32  1  0
 16 32  1  0
 32 33  1  1
 32 34  1  0
 34 35  1  1
 34 36  1  0
 36 37  1  0
 37 38  1  0
 37 39  2  0
 34 40  1  0
 30 40  1  0
 40 41  1  1
 41 42  1  0
 42 43  1  0
 43 44  1  0
 43 45  2  0
 31 46  1  0
 17 46  1  0
 22 46  1  0
 26 46  1  0
 46 47  1  0
 47 48  3  0
 46 49  1  0
 49 50  2  0
 50 51  1  0
 52 51  1  0
 52 53  1  1
 53 54  1  0
 54 55  1  6
 55 56  1  0
 54 57  1  0
 57 58  1  1
 58 59  1  0
 59 60  1  0
 59 61  2  0
 59 62  1  0
  1 62  1  0
 57 63  1  0
 52 63  1  0
 63 64  1  1
 51 65  1  0
 65 66  2  0
 66 67  1  0
 67 68  1  0
 67 69  2  0
 69 70  1  0
 69 71  1  0
 71 72  2  0
 49 72  1  0
 65 72  1  0
 27 73  1  0
 73 74  1  1
 73 75  1  0
 75 76  1  0
 76 77  1  0
 76 78  2  0
 73 79  1  0
 25 79  1  0
 79 80  1  1
 80 81  1  0
 81 82  1  0
 82 83  1  0
 82 84  2  0
 23 85  1  0
 85 86  1  0
 85 87  1  0
 85 88  1  0
 21 88  1  0
 88 89  1  1
 89 90  1  0
 90 91  1  0
 91 92  1  0
 91 93  2  0
M  CHG  6  22   1  26   1  31   1  46  -3  49   1  60  -1
M  END
$$$$
