344
     RDKit          2D

 20 22  0  0  0  0  0  0  0  0999 V2000
    2.5989   -1.7283    0.0000 N   0  0  0  0  0  0  0  0  0  0  0  0
    4.0276    0.7461    0.0000 C   0  0  0  0  0  0  0  0  0  0  0  0
    4.0276   -0.0786    0.0000 C   0  0  0  0  0  0  0  0  0  0  0  0
    4.7706    1.1040    0.0000 C   0  0  0  0  0  0  0  0  0  0  0  0
    3.2842    1.1040    0.0000 C   0  0  0  0  0  0  0  0  0  0  0  0
    3.3131   -0.4911    0.0000 C   0  0  0  0  0  0  0  0  0  0  0  0
    4.9542    1.9080    0.0000 C   0  0  0  0  0  0  0  0  0  0  0  0
    3.1007    1.9080    0.0000 C   0  0  0  0  0  0  0  0  0  0  0  0
    3.3130   -1.3158    0.0000 C   0  0  0  0  0  0  0  0  0  0  0  0
    5.3914    0.5102    0.0000 C   0  0  0  0  0  0  0  0  0  0  0  0
    2.6637    0.5102    0.0000 C   0  0  0  0  0  0  0  0  0  0  0  0
    4.4398    2.5530    0.0000 C   0  0  0  0  0  0  0  0  0  0  0  0
    3.6151    2.5530    0.0000 C   0  0  0  0  0  0  0  0  0  0  0  0
    5.7710    2.1739    0.0000 C   0  0  0  0  0  0  0  0  0  0  0  0
    2.2838    2.1739    0.0000 C   0  0  0  0  0  0  0  0  0  0  0  0
    6.2142    0.7568    0.0000 C   0  0  0  0  0  0  0  0  0  0  0  0
    1.8406    0.7568    0.0000 C   0  0  0  0  0  0  0  0  0  0  0  0
    6.4054    1.5946    0.0000 C   0  0  0  0  0  0  0  0  0  0  0  0
    1.6497    1.5947    0.0000 C   0  0  0  0  0  0  0  0  0  0  0  0
    2.5989   -2.5530    0.0000 C   0  0  0  0  0  0  0  0  0  0  0  0
  1  9  1  0
  1 20  1  0
  2  3  1  0
  2  4  1  0
  2  5  1  0
  3  6  1  0
  4  7  2  0
  4 10  1  0
  5  8  2  0
  5 11  1  0
  6  9  1  0
  7 12  1  0
  7 14  1  0
  8 13  1  0
  8 15  1  0
 10 16  2  0
 11 17  2  0
 12 13  2  0
 14 18  2  0
 15 19  2  0
 16 18  1  0
 17 19  1  0
M  END
$$$$
