710
     RDKit          2D

 19 18  0  0  1  0  0  0  0  0999 V2000
    4.2433   -1.7464    0.0000 P   0  0  0  0  0  0  0  0  0  0  0  0
    2.8143   -2.5714    0.0000 P   0  0  0  0  0  0  0  0  0  0  0  0
    3.9413   -2.8734    0.0000 O   0  0  0  0  0  0  0  0  0  0  0  0
    4.9577   -1.3339    0.0000 O   0  0  0  0  0  0  0  0  0  0  0  0
    4.6558   -2.4609    0.0000 O   0  0  0  0  0  0  0  0  0  0  0  0
    2.0998   -2.9839    0.0000 O   0  0  0  0  0  0  0  0  0  0  0  0
    2.4018   -1.8570    0.0000 O   0  0  0  0  0  0  0  0  0  0  0  0
    4.1000   -0.9339    0.0000 O   0  0  0  0  0  0  0  0  0  0  0  0
    2.8143   -3.3964    0.0000 O   0  0  0  0  0  0  0  0  0  0  0  0
    2.6275   -0.1016    0.0000 N   0  0  0  0  0  0  0  0  0  0  0  0
    3.5288   -2.1589    0.0000 C   0  0  0  0  0  0  0  0  0  0  0  0
    3.1163   -1.4444    0.0000 C   0  0  0  0  0  0  0  0  0  0  0  0
    3.2595   -0.6320    0.0000 C   0  0  0  0  0  0  0  0  0  0  0  0
    2.7708    0.7108    0.0000 C   0  0  0  0  0  0  0  0  0  0  0  0
    2.1388    1.2412    0.0000 C   0  0  0  0  0  0  0  0  0  0  0  0
    2.2820    2.0536    0.0000 C   0  0  0  0  0  0  0  0  0  0  0  0
    1.8523   -0.3838    0.0000 C   0  0  0  0  0  0  0  0  0  0  0  0
    1.6500    2.5840    0.0000 C   0  0  0  0  0  0  0  0  0  0  0  0
    1.7933    3.3964    0.0000 C   0  0  0  0  0  0  0  0  0  0  0  0
  1  4  1  0
  1  5  1  0
  1  8  2  0
  1 11  1  0
  2  6  1  0
  2  7  1  0
  2  9  2  0
  2 11  1  0
  3 11  1  0
 10 13  1  0
 10 14  1  0
 10 17  1  0
 11 12  1  0
 12 13  1  0
 14 15  1  0
 15 16  1  0
 16 18  1  0
 18 19  1  0
M  END
$$$$
