659
     RDKit          2D

 11 10  0  0  0  0  0  0  0  0999 V2000
    2.8075   -0.2615    0.0000 S   0  0  0  0  0  0  0  0  0  0  0  0
    2.0930   -0.6740    0.0000 O   0  0  0  0  0  0  0  0  0  0  0  0
    2.3950    0.4529    0.0000 O   0  0  0  0  0  0  0  0  0  0  0  0
    3.2200   -0.9760    0.0000 O   0  0  0  0  0  0  0  0  0  0  0  0
    6.3799    0.9760    0.0000 O   0  0  0  0  0  0  0  0  0  0  0  0
    5.6655   -0.2615    0.0000 N   0  0  0  0  0  0  0  0  0  0  0  0
    4.2365   -0.2615    0.0000 C   0  0  0  0  0  0  0  0  0  0  0  0
    3.5220    0.1510    0.0000 C   0  0  0  0  0  0  0  0  0  0  0  0
    4.9509    0.1510    0.0000 C   0  0  0  0  0  0  0  0  0  0  0  0
    6.3799    0.1510    0.0000 C   0  0  0  0  0  0  0  0  0  0  0  0
    7.0944   -0.2615    0.0000 C   0  0  0  0  0  0  0  0  0  0  0  0
  1  2  1  0
  1  3  2  0
  1  4  2  0
  1  8  1  0
  5 10  2  0
  6  9  1  0
  6 10  1  0
  7  8  1  0
  7  9  1  0
 10 11  1  0
M  END
$$$$
