
     RDKit          2D

 25 25  0  0  1  0  0  0  0  0999 V2000
    8.5222   -1.7365    0.0000 O   0  0  0  0  0  0  0  0  0  0  0  0
    6.1727   -3.4435    0.0000 O   0  0  0  0  0  0  0  0  0  0  0  0
    7.0701    0.9685    0.0000 O   0  0  0  0  0  0  0  0  0  0  0  0
    2.1365    0.8972    0.0000 O   0  0  0  0  0  0  0  0  0  0  0  0
    1.6949   -0.4618    0.0000 O   0  0  0  0  0  0  0  0  0  0  0  0
    7.0701   -1.5065    0.0000 C   0  0  0  0  0  0  0  0  0  0  0  0
    6.4027   -1.9915    0.0000 C   0  0  0  0  0  0  0  0  0  0  0  0
    7.7375   -1.9915    0.0000 C   0  0  0  0  0  0  0  0  0  0  0  0
    7.4826   -2.7761    0.0000 C   0  0  0  0  0  0  0  0  0  0  0  0
    6.6576   -2.7761    0.0000 C   0  0  0  0  0  0  0  0  0  0  0  0
    5.6180   -1.7365    0.0000 C   0  0  0  0  0  0  0  0  0  0  0  0
    7.0701   -0.6815    0.0000 C   0  0  0  0  0  0  0  0  0  0  0  0
    7.7846   -0.2690    0.0000 C   0  0  0  0  0  0  0  0  0  0  0  0
    5.0050   -2.2886    0.0000 C   0  0  0  0  0  0  0  0  0  0  0  0
    7.7846    0.5560    0.0000 C   0  0  0  0  0  0  0  0  0  0  0  0
    8.4990    0.9685    0.0000 C   0  0  0  0  0  0  0  0  0  0  0  0
    8.4990    1.7935    0.0000 C   0  0  0  0  0  0  0  0  0  0  0  0
    4.2203   -2.0336    0.0000 C   0  0  0  0  0  0  0  0  0  0  0  0
    9.2136    2.2060    0.0000 C   0  0  0  0  0  0  0  0  0  0  0  0
    4.0488   -1.2266    0.0000 C   0  0  0  0  0  0  0  0  0  0  0  0
    9.2136    3.0310    0.0000 C   0  0  0  0  0  0  0  0  0  0  0  0
    3.2641   -0.9717    0.0000 C   0  0  0  0  0  0  0  0  0  0  0  0
    3.0926   -0.1647    0.0000 C   0  0  0  0  0  0  0  0  0  0  0  0
    9.9280    3.4435    0.0000 C   0  0  0  0  0  0  0  0  0  0  0  0
    2.3080    0.0903    0.0000 C   0  0  0  0  0  0  0  0  0  0  0  0
  8  1  1  6
  2 10  2  0
 15  3  1  1
  4 25  1  0
  5 25  2  0
  6  7  1  0
  6  8  1  0
  6 12  1  1
  7 10  1  0
  7 11  1  6
  8  9  1  0
  9 10  1  0
 11 14  1  0
 12 13  2  0
 13 15  1  0
 14 18  2  0
 15 16  1  0
 16 17  1  0
 17 19  1  0
 18 20  1  0
 19 21  1  0
 20 22  1  0
 21 24  1  0
 22 23  1  0
 23 25  1  0
M  END
$$$$
