
     RDKit          2D

 22 25  0  0  0  0  0  0  0  0999 V2000
    7.7254    1.5548    0.0000 O   0  0  0  0  0  0  0  0  0  0  0  0
    2.3626   -1.9994    0.0000 O   0  0  0  0  0  0  0  0  0  0  0  0
    6.8116    0.5185    0.0000 C   0  0  0  0  0  0  0  0  0  0  0  0
    6.8116   -0.3064    0.0000 C   0  0  0  0  0  0  0  0  0  0  0  0
    6.0971   -0.7188    0.0000 C   0  0  0  0  0  0  0  0  0  0  0  0
    7.5921    0.7699    0.0000 C   0  0  0  0  0  0  0  0  0  0  0  0
    6.0971    0.9310    0.0000 C   0  0  0  0  0  0  0  0  0  0  0  0
    7.5921   -0.5577    0.0000 C   0  0  0  0  0  0  0  0  0  0  0  0
    5.3827    0.5185    0.0000 C   0  0  0  0  0  0  0  0  0  0  0  0
    8.0734    0.1061    0.0000 C   0  0  0  0  0  0  0  0  0  0  0  0
    6.1102   -1.5781    0.0000 C   0  0  0  0  0  0  0  0  0  0  0  0
    6.8116    1.3434    0.0000 C   0  0  0  0  0  0  0  0  0  0  0  0
    4.6321   -0.7245    0.0000 C   0  0  0  0  0  0  0  0  0  0  0  0
    5.3696   -2.0134    0.0000 C   0  0  0  0  0  0  0  0  0  0  0  0
    4.6255   -1.5838    0.0000 C   0  0  0  0  0  0  0  0  0  0  0  0
    8.2602    0.9263    0.0000 C   0  0  0  0  0  0  0  0  0  0  0  0
    3.8674   -0.2592    0.0000 C   0  0  0  0  0  0  0  0  0  0  0  0
    3.8538   -2.0372    0.0000 C   0  0  0  0  0  0  0  0  0  0  0  0
    3.0855   -0.6947    0.0000 C   0  0  0  0  0  0  0  0  0  0  0  0
    3.0785   -1.5898    0.0000 C   0  0  0  0  0  0  0  0  0  0  0  0
    9.0774    1.0528    0.0000 C   0  0  0  0  0  0  0  0  0  0  0  0
    5.3827   -0.3064    0.0000 C   0  0  0  0  0  0  0  0  0  0  0  0
  6  1  1  1
  2 20  1  0
  3  4  1  0
  3  6  1  0
  3  7  1  0
  3 12  1  1
  4  5  1  0
  4  8  1  1
  5 11  1  6
  6 10  1  0
  6 16  1  0
  7  9  1  0
  8 10  1  0
 11 14  1  0
 13 15  2  0
 13 17  1  0
 14 15  1  0
 15 18  1  0
 16 21  3  0
 17 19  2  0
 18 20  2  0
 19 20  1  0
  5 22  1  0
 22  9  1  1
 22 13  1  0
M  END
$$$$
