934
     RDKit          2D

 21 24  0  0  0  0  0  0  0  0999 V2000
    5.3052   -1.8593    0.0000 N   0  0  0  0  0  0  0  0  0  0  0  0
    4.5950    0.7910    0.0000 C   0  0  0  0  0  0  0  0  0  0  0  0
    4.8000    1.5561    0.0000 C   0  0  0  0  0  0  0  0  0  0  0  0
    3.8205    2.2283    0.0000 C   0  0  0  0  0  0  0  0  0  0  0  0
    4.5065    2.6244    0.0000 C   0  0  0  0  0  0  0  0  0  0  0  0
    6.0461    0.1900    0.0000 C   0  0  0  0  0  0  0  0  0  0  0  0
    3.2232   -0.0010    0.0000 C   0  0  0  0  0  0  0  0  0  0  0  0
    4.3900    0.0260    0.0000 C   0  0  0  0  0  0  0  0  0  0  0  0
    6.2511    0.9551    0.0000 C   0  0  0  0  0  0  0  0  0  0  0  0
    2.8271    0.6849    0.0000 C   0  0  0  0  0  0  0  0  0  0  0  0
    4.9501   -0.5341    0.0000 C   0  0  0  0  0  0  0  0  0  0  0  0
    6.6204   -0.4023    0.0000 C   0  0  0  0  0  0  0  0  0  0  0  0
    2.8217   -0.7218    0.0000 C   0  0  0  0  0  0  0  0  0  0  0  0
    7.0446    1.1809    0.0000 C   0  0  0  0  0  0  0  0  0  0  0  0
    2.0022    0.6977    0.0000 C   0  0  0  0  0  0  0  0  0  0  0  0
    4.7451   -1.2991    0.0000 C   0  0  0  0  0  0  0  0  0  0  0  0
    7.4190   -0.1949    0.0000 C   0  0  0  0  0  0  0  0  0  0  0  0
    1.9966   -0.7281    0.0000 C   0  0  0  0  0  0  0  0  0  0  0  0
    7.6324    0.6020    0.0000 C   0  0  0  0  0  0  0  0  0  0  0  0
    1.5841   -0.0136    0.0000 C   0  0  0  0  0  0  0  0  0  0  0  0
    5.1002   -2.6244    0.0000 C   0  0  0  0  0  0  0  0  0  0  0  0
  1 16  1  0
  1 21  1  0
  2  4  1  0
  2  6  1  0
  2  7  1  0
  2  8  1  0
  3  5  1  0
  3  9  1  0
  3 10  1  0
  4  5  1  0
  6  9  2  0
  6 12  1  0
  7 10  2  0
  7 13  1  0
  8 11  1  0
  9 14  1  0
 10 15  1  0
 11 16  1  0
 12 17  2  0
 13 18  2  0
 14 19  2  0
 15 20  2  0
 17 19  1  0
 18 20  1  0
M  END
$$$$
