
     RDKit          2D

 20 21  0  0  0  0  0  0  0  0999 V2000
    6.1043   -8.1935    0.0000 C   0  0  0  0  0  0  0  0  0  0  0  0
    5.4015   -7.7866    0.0000 N   0  0  0  0  0  0  0  0  0  0  0  0
    6.8260   -7.7866    0.0000 C   0  0  0  0  0  0  0  0  0  0  0  0
    7.5289   -8.1750    0.0000 C   0  0  0  0  0  0  0  0  0  0  0  0
    7.5289   -9.0075    0.0000 C   0  0  0  0  0  0  0  0  0  0  0  0
    6.8074   -9.4145    0.0000 C   0  0  0  0  0  0  0  0  0  0  0  0
    6.1043   -9.0075    0.0000 C   0  0  0  0  0  0  0  0  0  0  0  0
    6.8260   -6.9541    0.0000 C   0  0  0  0  0  0  0  0  0  0  0  0
    4.6984   -8.1935    0.0000 C   0  0  0  0  0  0  0  0  0  0  0  0
    4.6984   -9.0075    0.0000 O   0  0  0  0  0  0  0  0  0  0  0  0
    5.4015   -9.4330    0.0000 C   0  0  0  0  0  0  0  0  0  0  0  0
    3.9954   -7.7866    0.0000 C   0  0  0  0  0  0  0  0  0  0  0  0
    3.2740   -8.1750    0.0000 N   0  0  0  0  0  0  0  0  0  0  0  0
    2.5710   -7.7866    0.0000 C   0  0  0  0  0  0  0  0  0  0  0  0
    2.5710   -6.9541    0.0000 C   0  0  0  0  0  0  0  0  0  0  0  0
    3.2740   -6.5470    0.0000 C   0  0  0  0  0  0  0  0  0  0  0  0
    3.9954   -6.9541    0.0000 C   0  0  0  0  0  0  0  0  0  0  0  0
    3.2740   -9.0075    0.0000 C   0  0  0  0  0  0  0  0  0  0  0  0
    3.9769   -9.4145    0.0000 C   0  0  0  0  0  0  0  0  0  0  0  0
    3.9769  -10.2470    0.0000 C   0  0  0  0  0  0  0  0  0  0  0  0
  3  1  2  0
  2  1  1  0
  7  1  1  0
  9  2  1  0
  4  3  1  0
  8  3  1  0
  5  4  2  0
  6  5  1  0
  7  6  2  0
 11  7  1  0
 10  9  2  0
 12  9  1  1
 13 12  1  0
 17 12  1  0
 14 13  1  0
 18 13  1  0
 15 14  1  0
 16 15  1  0
 17 16  1  0
 19 18  1  0
 20 19  1  0
M  END
$$$$
