477
     RDKit          2D

 21 23  0  0  0  0  0  0  0  0999 V2000
    6.4919   -0.7592    0.0000 Cl  0  0  0  0  0  0  0  0  0  0  0  0
    3.6957   -2.3625    0.0000 S   0  0  0  0  0  0  0  0  0  0  0  0
    3.6957   -0.7784    0.0000 N   0  0  0  0  0  0  0  0  0  0  0  0
    2.3239    1.5978    0.0000 N   0  0  0  0  0  0  0  0  0  0  0  0
    3.6957    0.0137    0.0000 C   0  0  0  0  0  0  0  0  0  0  0  0
    3.0098    0.4098    0.0000 C   0  0  0  0  0  0  0  0  0  0  0  0
    3.0098    1.2018    0.0000 C   0  0  0  0  0  0  0  0  0  0  0  0
    4.3817   -1.1744    0.0000 C   0  0  0  0  0  0  0  0  0  0  0  0
    3.0098   -1.1744    0.0000 C   0  0  0  0  0  0  0  0  0  0  0  0
    4.3817   -1.9664    0.0000 C   0  0  0  0  0  0  0  0  0  0  0  0
    3.0098   -1.9664    0.0000 C   0  0  0  0  0  0  0  0  0  0  0  0
    5.0898   -0.7509    0.0000 C   0  0  0  0  0  0  0  0  0  0  0  0
    2.3018   -0.7509    0.0000 C   0  0  0  0  0  0  0  0  0  0  0  0
    5.0898   -2.3899    0.0000 C   0  0  0  0  0  0  0  0  0  0  0  0
    2.3018   -2.3899    0.0000 C   0  0  0  0  0  0  0  0  0  0  0  0
    1.6380    1.2018    0.0000 C   0  0  0  0  0  0  0  0  0  0  0  0
    2.3239    2.3899    0.0000 C   0  0  0  0  0  0  0  0  0  0  0  0
    5.8075   -1.1579    0.0000 C   0  0  0  0  0  0  0  0  0  0  0  0
    1.5841   -1.1579    0.0000 C   0  0  0  0  0  0  0  0  0  0  0  0
    5.8075   -1.9830    0.0000 C   0  0  0  0  0  0  0  0  0  0  0  0
    1.5841   -1.9830    0.0000 C   0  0  0  0  0  0  0  0  0  0  0  0
  1 18  1  0
  2 10  1  0
  2 11  1  0
  3  5  1  0
  3  8  1  0
  3  9  1  0
  4  7  1  0
  4 16  1  0
  4 17  1  0
  5  6  1  0
  6  7  1  0
  8 10  2  0
  8 12  1  0
  9 11  2  0
  9 13  1  0
 10 14  1  0
 11 15  1  0
 12 18  2  0
 13 19  2  0
 14 20  2  0
 15 21  2  0
 18 20  1  0
 19 21  1  0
M  END
$$$$
