
     RDKit          2D

 29 32  0  0  1  0  0  0  0  0999 V2000
   17.4442   -5.8431    0.0000 C   0  0  0  0  0  0  0  0  0  0  0  0
   19.5947   -4.5980    0.0000 C   0  0  0  0  0  0  0  0  0  0  0  0
   18.1516   -5.4186    0.0000 C   0  0  0  0  0  0  0  0  0  0  0  0
   17.4442   -6.6637    0.0000 C   0  0  0  0  0  0  0  0  0  0  0  0
   19.5947   -5.4186    0.0000 C   0  0  0  0  0  0  0  0  0  0  0  0
   18.8873   -5.8431    0.0000 C   0  0  0  0  0  0  0  0  0  0  0  0
   20.3870   -4.3433    0.0000 C   0  0  0  0  0  0  0  0  0  0  0  0
   18.1516   -4.5980    0.0000 C   0  0  0  0  0  0  0  0  0  0  0  0
   16.7085   -5.4186    0.0000 C   0  0  0  0  0  0  0  0  0  0  0  0
   18.8873   -4.1736    0.0000 C   0  0  0  0  0  0  0  0  0  0  0  0
   20.8680   -4.9942    0.0000 C   0  0  0  0  0  0  0  0  0  0  0  0
   20.3870   -5.6733    0.0000 C   0  0  0  0  0  0  0  0  0  0  0  0
   18.8873   -6.6637    0.0000 C   0  0  0  0  0  0  0  0  0  0  0  0
   18.1516   -7.0881    0.0000 C   0  0  0  0  0  0  0  0  0  0  0  0
   16.7085   -7.0881    0.0000 C   0  0  0  0  0  0  0  0  0  0  0  0
   20.3870   -3.4945    0.0000 C   0  0  0  0  0  0  0  0  0  0  0  0
   16.0010   -5.8431    0.0000 C   0  0  0  0  0  0  0  0  0  0  0  0
   16.0010   -6.6353    0.0000 C   0  0  0  0  0  0  0  0  0  0  0  0
   18.1516   -6.2109    0.0000 F   0  0  0  0  0  0  0  0  0  0  0  0
   19.6796   -3.0983    0.0000 O   0  0  0  0  0  0  0  0  0  0  0  0
   15.2654   -7.0598    0.0000 O   0  0  0  0  0  0  0  0  0  0  0  0
   17.4442   -4.9942    0.0000 C   0  0  0  0  0  0  0  0  0  0  0  0
   19.5947   -3.8057    0.0000 C   0  0  0  0  0  0  0  0  0  0  0  0
   17.4442   -4.1736    0.0000 O   0  0  0  0  0  0  0  0  0  0  0  0
   18.1516   -7.9087    0.0000 F   0  0  0  0  0  0  0  0  0  0  0  0
   21.0944   -3.0983    0.0000 C   0  0  0  0  0  0  0  0  0  0  0  0
   21.8301   -3.4945    0.0000 O   0  0  0  0  0  0  0  0  0  0  0  0
   21.6930   -4.9858    0.0000 C   0  0  0  0  0  0  0  0  0  0  0  0
   21.1810   -4.5522    0.0000 O   0  0  0  0  0  0  0  0  0  0  0  0
  3  1  1  0
  4  1  1  0
  9  1  1  0
  1 22  1  1
 10  2  1  0
  7  2  1  0
  2 23  1  1
  5  2  1  0
  6  3  1  0
  8  3  1  0
  3 19  1  6
 14  4  1  0
 15  4  2  0
  6  5  1  0
  5 12  1  1
  6 13  1  6
 16  7  1  0
 11  7  1  0
 10  8  1  0
  8 24  1  1
 17  9  2  0
 12 11  1  0
 14 13  1  0
 14 25  1  6
 18 15  1  0
 20 16  2  0
 26 16  1  0
 18 17  1  0
 21 18  2  0
 27 26  1  0
 11 28  1  1
  7 29  1  6
M  END
$$$$
