
     RDKit          2D

 33 36  0  0  1  0  0  0  0  0999 V2000
    9.2719  -13.6225    0.0000 C   0  0  0  0  0  0  0  0  0  0  0  0
    9.7621  -12.9484    0.0000 C   0  0  0  0  0  0  0  0  0  0  0  0
    9.2719  -12.3049    0.0000 C   0  0  0  0  0  0  0  0  0  0  0  0
    8.5059  -13.3774    0.0000 N   0  0  0  0  0  0  0  0  0  0  0  0
    8.5059  -12.5501    0.0000 C   0  0  0  0  0  0  0  0  0  0  0  0
    7.6479  -12.5501    0.0000 C   0  0  0  0  0  0  0  0  0  0  0  0
    7.6479  -13.3774    0.0000 C   0  0  0  0  0  0  0  0  0  0  0  0
    6.9432  -12.1517    0.0000 C   0  0  0  0  0  0  0  0  0  0  0  0
    6.9432  -11.3244    0.0000 O   0  0  0  0  0  0  0  0  0  0  0  0
    6.2385  -12.5501    0.0000 C   0  0  0  0  0  0  0  0  0  0  0  0
    7.0964  -13.9595    0.0000 O   0  0  0  0  0  0  0  0  0  0  0  0
    9.4557  -14.4191    0.0000 C   0  0  0  0  0  0  0  0  0  0  0  0
   10.2218  -14.6949    0.0000 O   0  0  0  0  0  0  0  0  0  0  0  0
    8.8429  -15.0013    0.0000 O   0  0  0  0  0  0  0  0  0  0  0  0
    9.5170  -11.5083    0.0000 C   0  0  0  0  0  0  0  0  0  0  0  0
   10.5894  -12.9484    0.0000 S   0  0  0  0  0  0  0  0  0  0  0  0
   10.9873  -13.6830    0.0000 C   0  0  0  0  0  0  0  0  0  0  0  0
   10.7277  -14.4661    0.0000 C   0  0  0  0  0  0  0  0  0  0  0  0
   11.4028  -14.9393    0.0000 N   0  0  0  0  0  0  0  0  0  0  0  0
   12.0437  -14.4456    0.0000 C   0  0  0  0  0  0  0  0  0  0  0  0
   11.8049  -13.6831    0.0000 C   0  0  0  0  0  0  0  0  0  0  0  0
   12.7466  -14.8770    0.0000 C   0  0  0  0  0  0  0  0  0  0  0  0
   12.7446  -15.6736    0.0000 O   0  0  0  0  0  0  0  0  0  0  0  0
   13.4830  -14.4499    0.0000 N   0  0  0  0  0  0  0  0  0  0  0  0
   13.4851  -13.6226    0.0000 C   0  0  0  0  0  0  0  0  0  0  0  0
   12.7507  -13.2224    0.0000 C   0  0  0  0  0  0  0  0  0  0  0  0
   12.7528  -12.3951    0.0000 C   0  0  0  0  0  0  0  0  0  0  0  0
   13.4893  -11.9680    0.0000 C   0  0  0  0  0  0  0  0  0  0  0  0
   14.1929  -12.3987    0.0000 C   0  0  0  0  0  0  0  0  0  0  0  0
   14.1908  -13.2260    0.0000 C   0  0  0  0  0  0  0  0  0  0  0  0
   14.8987  -11.9716    0.0000 C   0  0  0  0  0  0  0  0  0  0  0  0
   15.6330  -12.4024    0.0000 O   0  0  0  0  0  0  0  0  0  0  0  0
   14.9008  -11.1749    0.0000 O   0  0  0  0  0  0  0  0  0  0  0  0
  4  1  1  0
  2  1  2  0
 12  1  1  0
 16  2  1  0
  3  2  1  0
  5  3  1  0
  3 15  1  1
  5  4  1  1
  7  4  1  0
  6  5  1  0
  8  6  1  0
  6  7  1  6
 11  7  2  0
  8  9  1  0
  8 10  1  1
 13 12  2  0
 14 12  1  0
 17 16  1  1
 18 17  1  0
 21 17  1  0
 19 18  1  0
 20 19  1  0
 21 20  1  0
 20 22  1  1
 23 22  2  0
 24 22  1  0
 25 24  1  0
 26 25  2  0
 30 25  1  0
 27 26  1  0
 28 27  2  0
 29 28  1  0
 30 29  2  0
 31 29  1  0
 32 31  1  0
 33 31  2  0
M  END
$$$$
