
     RDKit          2D

 26 29  0  0  1  0  0  0  0  0999 V2000
    4.1207   -4.5812    0.0000 N   0  0  0  0  0  0  0  0  0  0  0  0
    4.8379   -3.3448    0.0000 C   0  0  0  0  0  0  0  0  0  0  0  0
    4.8379   -4.1732    0.0000 C   0  0  0  0  0  0  0  0  0  0  0  0
    4.1207   -2.9369    0.0000 C   0  0  0  0  0  0  0  0  0  0  0  0
    3.4119   -4.1732    0.0000 C   0  0  0  0  0  0  0  0  0  0  0  0
    3.7501   -3.8760    0.0000 C   0  0  0  0  0  0  0  0  0  0  0  0
    3.4119   -3.3448    0.0000 C   0  0  0  0  0  0  0  0  0  0  0  0
    4.4504   -3.6787    0.0000 C   0  0  0  0  0  0  0  0  0  0  0  0
    4.1207   -5.3354    0.0000 C   0  0  0  0  0  0  0  0  0  0  0  0
    5.5510   -2.9301    0.0000 O   0  0  0  0  0  0  0  0  0  0  0  0
    6.2668   -3.3404    0.0000 C   0  0  0  0  0  0  0  0  0  0  0  0
    6.9799   -2.9256    0.0000 C   0  0  0  0  0  0  0  0  0  0  0  0
    6.2694   -4.1653    0.0000 O   0  0  0  0  0  0  0  0  0  0  0  0
    7.6957   -3.3358    0.0000 O   0  0  0  0  0  0  0  0  0  0  0  0
    6.3966   -2.3422    0.0000 C   0  0  0  0  0  0  0  0  0  0  0  0
    7.5633   -2.3422    0.0000 C   0  0  0  0  0  0  0  0  0  0  0  0
    5.5997   -2.5558    0.0000 C   0  0  0  0  0  0  0  0  0  0  0  0
    5.0163   -1.9724    0.0000 C   0  0  0  0  0  0  0  0  0  0  0  0
    5.2298   -1.1755    0.0000 C   0  0  0  0  0  0  0  0  0  0  0  0
    6.6101   -1.5453    0.0000 C   0  0  0  0  0  0  0  0  0  0  0  0
    6.0267   -0.9620    0.0000 C   0  0  0  0  0  0  0  0  0  0  0  0
    8.3602   -2.5558    0.0000 C   0  0  0  0  0  0  0  0  0  0  0  0
    8.9436   -1.9724    0.0000 C   0  0  0  0  0  0  0  0  0  0  0  0
    7.3498   -1.5453    0.0000 C   0  0  0  0  0  0  0  0  0  0  0  0
    8.7300   -1.1755    0.0000 C   0  0  0  0  0  0  0  0  0  0  0  0
    7.9332   -0.9620    0.0000 C   0  0  0  0  0  0  0  0  0  0  0  0
  1  3  1  0
  3  2  1  0
  4  2  1  0
  5  7  1  0
  6  8  1  0
  7  4  1  0
  4  8  1  0
  9  1  1  0
  1  6  1  0
  5  1  1  0
  2 10  1  0
 10 11  1  0
 11 12  1  0
 11 13  2  0
 12 14  1  0
 12 15  1  0
 12 16  1  0
 18 17  2  0
 15 17  1  0
 19 18  1  0
 20 15  2  0
 21 19  2  0
 21 20  1  0
 16 22  2  0
 23 22  1  0
 24 16  1  0
 25 23  2  0
 26 24  2  0
 26 25  1  0
M  CHG  1   1   1
M  END
$$$$
