
     RDKit          2D

 27 30  0  0  0  0  0  0  0  0999 V2000
    1.0605    0.4942    0.0000 C   0  0  0  0  0  0  0  0  0  0  0  0
    1.0605   -0.3262    0.0000 C   0  0  0  0  0  0  0  0  0  0  0  0
   -1.0749   -0.7197    0.0000 C   0  0  0  0  0  0  0  0  0  0  0  0
    1.7948    0.7342    0.0000 C   0  0  0  0  0  0  0  0  0  0  0  0
    0.3695   -0.7197    0.0000 C   0  0  0  0  0  0  0  0  0  0  0  0
   -0.3502   -0.3262    0.0000 C   0  0  0  0  0  0  0  0  0  0  0  0
   -1.0749   -1.5403    0.0000 C   0  0  0  0  0  0  0  0  0  0  0  0
    0.3695    0.8925    0.0000 C   0  0  0  0  0  0  0  0  0  0  0  0
   -0.3502    0.5087    0.0000 C   0  0  0  0  0  0  0  0  0  0  0  0
    2.2698    0.0768    0.0000 C   0  0  0  0  0  0  0  0  0  0  0  0
   -1.7803   -0.2974    0.0000 C   0  0  0  0  0  0  0  0  0  0  0  0
    1.8379   -0.5471    0.0000 C   0  0  0  0  0  0  0  0  0  0  0  0
   -1.8186   -1.9243    0.0000 C   0  0  0  0  0  0  0  0  0  0  0  0
    0.3695   -1.5547    0.0000 C   0  0  0  0  0  0  0  0  0  0  0  0
   -2.5097   -0.7197    0.0000 C   0  0  0  0  0  0  0  0  0  0  0  0
    1.7948    1.5596    0.0000 C   0  0  0  0  0  0  0  0  0  0  0  0
   -2.5097   -1.5067    0.0000 C   0  0  0  0  0  0  0  0  0  0  0  0
   -0.3502   -1.9722    0.0000 C   0  0  0  0  0  0  0  0  0  0  0  0
    1.0605    1.9626    0.0000 O   0  0  0  0  0  0  0  0  0  0  0  0
   -3.2439   -1.8714    0.0000 O   0  0  0  0  0  0  0  0  0  0  0  0
    1.0605    1.3244    0.0000 C   0  0  0  0  0  0  0  0  0  0  0  0
   -1.0605    0.9405    0.0000 O   0  0  0  0  0  0  0  0  0  0  0  0
   -1.0749    0.1151    0.0000 C   0  0  0  0  0  0  0  0  0  0  0  0
    2.5289    1.1133    0.0000 C   0  0  0  0  0  0  0  0  0  0  0  0
    3.0999    0.0863    0.0000 C   0  0  0  0  0  0  0  0  0  0  0  0
    2.5097    1.9722    0.0000 C   0  0  0  0  0  0  0  0  0  0  0  0
    3.2439    1.5739    0.0000 C   0  0  0  0  0  0  0  0  0  0  0  0
  2  1  1  0
  3  6  1  0
  4  1  1  0
  5  2  1  0
  6  9  1  1
  7  3  1  0
  8  1  1  0
  9  8  1  0
 10  4  1  0
 11  3  1  0
  2 12  1  1
 13  7  2  0
  5 14  1  6
 15 11  2  0
  4 16  1  0
 17 15  1  0
 18 14  1  0
 19 16  2  0
 20 17  2  0
  1 21  1  1
  9 22  1  1
  3 23  1  1
  4 24  1  6
 10 25  1  6
 26 16  1  0
 27 26  1  0
 10 12  1  0
  6  5  1  0
  7 18  1  0
 17 13  1  0
M  END
$$$$
