832
     RDKit          2D

 14 15  0  0  1  0  0  0  0  0999 V2000
    1.6500    0.4990    0.0000 O   0  0  0  0  0  0  0  0  0  0  0  0
    3.9995    2.2060    0.0000 O   0  0  0  0  0  0  0  0  0  0  0  0
    2.6896    1.5386    0.0000 N   0  0  0  0  0  0  0  0  0  0  0  0
    3.1021    0.2690    0.0000 C   0  0  0  0  0  0  0  0  0  0  0  0
    3.7695    0.7540    0.0000 C   0  0  0  0  0  0  0  0  0  0  0  0
    2.4347    0.7540    0.0000 C   0  0  0  0  0  0  0  0  0  0  0  0
    3.1021   -0.5560    0.0000 C   0  0  0  0  0  0  0  0  0  0  0  0
    3.5146    1.5386    0.0000 C   0  0  0  0  0  0  0  0  0  0  0  0
    2.2047    2.2060    0.0000 C   0  0  0  0  0  0  0  0  0  0  0  0
    3.8166   -0.9685    0.0000 C   0  0  0  0  0  0  0  0  0  0  0  0
    2.3876   -0.9685    0.0000 C   0  0  0  0  0  0  0  0  0  0  0  0
    3.8166   -1.7935    0.0000 C   0  0  0  0  0  0  0  0  0  0  0  0
    2.3876   -1.7935    0.0000 C   0  0  0  0  0  0  0  0  0  0  0  0
    3.1021   -2.2060    0.0000 C   0  0  0  0  0  0  0  0  0  0  0  0
  1  6  2  0
  2  8  2  0
  3  6  1  0
  3  8  1  0
  3  9  1  0
  4  5  1  0
  4  6  1  0
  4  7  1  0
  5  8  1  0
  7 10  2  0
  7 11  1  0
 10 12  1  0
 11 13  2  0
 12 14  2  0
 13 14  1  0
M  END
$$$$
