
     RDKit          2D

 71 75  0  0  0  0  0  0  0  0999 V2000
    2.4822    0.3642    0.0000 N   0  0  0  0  0  0  0  0  0  0  0  0
    2.4822   -0.4607    0.0000 C   0  0  0  0  0  0  0  0  0  0  0  0
    1.7730   -0.8805    0.0000 C   0  0  0  0  0  0  0  0  0  0  0  0
    1.7778   -1.7055    0.0000 N   0  0  0  0  0  0  0  0  0  0  0  0
   -1.7971   -0.4703    0.0000 N   0  0  0  0  0  0  0  0  0  0  0  0
   -1.1361    1.5944    0.0000 N   0  0  0  0  0  0  0  0  0  0  0  0
   -2.5111   -0.8901    0.0000 C   0  0  0  0  0  0  0  0  0  0  0  0
    1.0542    1.9997    0.0000 N   0  0  0  0  0  0  0  0  0  0  0  0
    1.7634    0.7694    0.0000 C   0  0  0  0  0  0  0  0  0  0  0  0
    0.3305    1.5848    0.0000 C   0  0  0  0  0  0  0  0  0  0  0  0
   -1.1313    0.7694    0.0000 C   0  0  0  0  0  0  0  0  0  0  0  0
    0.3884    3.2010    0.0000 C   0  0  0  0  0  0  0  0  0  0  0  0
    1.0686   -2.1348    0.0000 C   0  0  0  0  0  0  0  0  0  0  0  0
   -2.5207   -1.7344    0.0000 C   0  0  0  0  0  0  0  0  0  0  0  0
    1.0831   -2.9502    0.0000 C   0  0  0  0  0  0  0  0  0  0  0  0
   -0.3835    1.9997    0.0000 C   0  0  0  0  0  0  0  0  0  0  0  0
   -3.1576   -2.1397    0.0000 N   0  0  0  0  0  0  0  0  0  0  0  0
   -1.7971    0.3642    0.0000 C   0  0  0  0  0  0  0  0  0  0  0  0
   -3.9151   -1.7923    0.0000 C   0  0  0  0  0  0  0  0  0  0  0  0
    1.7199    3.2300    0.0000 N   0  0  0  0  0  0  0  0  0  0  0  0
    0.3690   -3.3699    0.0000 N   0  0  0  0  0  0  0  0  0  0  0  0
    1.0638    2.7379    0.0000 C   0  0  0  0  0  0  0  0  0  0  0  0
    1.7634    1.5944    0.0000 C   0  0  0  0  0  0  0  0  0  0  0  0
   -0.3835    2.8247    0.0000 C   0  0  0  0  0  0  0  0  0  0  0  0
    0.6344    3.9875    0.0000 C   0  0  0  0  0  0  0  0  0  0  0  0
    0.3594   -4.1949    0.0000 C   0  0  0  0  0  0  0  0  0  0  0  0
   -0.2918   -2.1348    0.0000 S   0  0  0  0  0  0  0  0  0  0  0  0
   -1.1796   -1.7199    0.0000 S   0  0  0  0  0  0  0  0  0  0  0  0
    1.4594    3.9875    0.0000 C   0  0  0  0  0  0  0  0  0  0  0  0
   -4.6243   -2.2265    0.0000 C   0  0  0  0  0  0  0  0  0  0  0  0
    1.0493   -0.4752    0.0000 O   0  0  0  0  0  0  0  0  0  0  0  0
   -3.2348   -0.4897    0.0000 O   0  0  0  0  0  0  0  0  0  0  0  0
    1.0493    0.3642    0.0000 O   0  0  0  0  0  0  0  0  0  0  0  0
    0.3305    0.7694    0.0000 O   0  0  0  0  0  0  0  0  0  0  0  0
   -0.3835    0.3642    0.0000 O   0  0  0  0  0  0  0  0  0  0  0  0
    1.7634   -3.3410    0.0000 O   0  0  0  0  0  0  0  0  0  0  0  0
   -2.5111    0.7694    0.0000 C   0  0  0  0  0  0  0  0  0  0  0  0
   -3.9151   -0.9673    0.0000 O   0  0  0  0  0  0  0  0  0  0  0  0
    0.3835   -1.7344    0.0000 C   0  0  0  0  0  0  0  0  0  0  0  0
   -1.8453   -2.0963    0.0000 C   0  0  0  0  0  0  0  0  0  0  0  0
    3.2059   -0.8660    0.0000 C   0  0  0  0  0  0  0  0  0  0  0  0
   -4.6194   -3.0515    0.0000 C   0  0  0  0  0  0  0  0  0  0  0  0
    1.0976   -4.6002    0.0000 C   0  0  0  0  0  0  0  0  0  0  0  0
   -5.3480   -1.8357    0.0000 N   0  0  0  0  0  0  0  0  0  0  0  0
   -2.5063    1.5848    0.0000 C   0  0  0  0  0  0  0  0  0  0  0  0
   -3.9102   -3.4568    0.0000 C   0  0  0  0  0  0  0  0  0  0  0  0
    5.3480    2.0142    0.0000 N   0  0  0  0  0  0  0  0  0  0  0  0
    3.2107   -1.6910    0.0000 O   0  0  0  0  0  0  0  0  0  0  0  0
    1.1072   -5.4348    0.0000 O   0  0  0  0  0  0  0  0  0  0  0  0
   -0.3352   -4.6292    0.0000 C   0  0  0  0  0  0  0  0  0  0  0  0
   -1.0589   -4.2190    0.0000 O   0  0  0  0  0  0  0  0  0  0  0  0
    0.2147    4.7111    0.0000 C   0  0  0  0  0  0  0  0  0  0  0  0
    2.4822    2.0142    0.0000 C   0  0  0  0  0  0  0  0  0  0  0  0
    1.8888    4.7111    0.0000 C   0  0  0  0  0  0  0  0  0  0  0  0
    4.6292    1.5993    0.0000 C   0  0  0  0  0  0  0  0  0  0  0  0
    3.9151   -0.4414    0.0000 C   0  0  0  0  0  0  0  0  0  0  0  0
    1.8068   -4.1805    0.0000 C   0  0  0  0  0  0  0  0  0  0  0  0
   -3.9006   -4.2818    0.0000 C   0  0  0  0  0  0  0  0  0  0  0  0
   -3.2300    2.0142    0.0000 C   0  0  0  0  0  0  0  0  0  0  0  0
   -1.7730    1.9756    0.0000 C   0  0  0  0  0  0  0  0  0  0  0  0
   -3.1865   -3.0467    0.0000 C   0  0  0  0  0  0  0  0  0  0  0  0
    3.1963    1.5993    0.0000 C   0  0  0  0  0  0  0  0  0  0  0  0
    3.9151    2.0142    0.0000 C   0  0  0  0  0  0  0  0  0  0  0  0
    0.6296    5.4300    0.0000 C   0  0  0  0  0  0  0  0  0  0  0  0
    1.4594    5.4348    0.0000 C   0  0  0  0  0  0  0  0  0  0  0  0
   -2.5063   -3.4568    0.0000 C   0  0  0  0  0  0  0  0  0  0  0  0
   -3.2155   -4.6677    0.0000 C   0  0  0  0  0  0  0  0  0  0  0  0
   -3.2300    2.8392    0.0000 C   0  0  0  0  0  0  0  0  0  0  0  0
   -1.7681    2.8102    0.0000 C   0  0  0  0  0  0  0  0  0  0  0  0
   -2.4677    3.2348    0.0000 C   0  0  0  0  0  0  0  0  0  0  0  0
   -2.5063   -4.2818    0.0000 C   0  0  0  0  0  0  0  0  0  0  0  0
  2  1  1  1
  3  2  1  0
  4  3  1  0
  5 18  1  0
  6 16  1  0
  7  5  1  0
  8 23  1  0
  9  1  1  0
 10  8  1  0
 11  6  1  0
 12 24  1  0
 13  4  1  0
 14 40  1  0
 13 15  1  6
 16 10  1  0
 14 17  1  6
 18 11  1  0
 19 17  1  0
 20 22  1  0
 21 15  1  0
 22 12  2  0
 23  9  1  0
 16 24  1  6
 25 12  1  0
 26 21  1  0
 27 39  1  0
 28 27  1  0
 29 25  2  0
 30 19  1  0
 31  3  2  0
 32  7  2  0
 33  9  2  0
 34 10  2  0
 35 11  2  0
 36 15  2  0
 18 37  1  1
 38 19  2  0
 39 13  1  0
 40 28  1  0
 41  2  1  0
 30 42  1  0
 43 26  1  0
 30 44  1  1
 45 37  1  0
 46 42  1  0
 47 55  1  0
 41 48  1  0
 43 49  1  0
 26 50  1  1
 51 50  1  0
 52 25  1  0
 23 53  1  1
 54 29  1  0
 55 63  1  0
 41 56  1  1
 43 57  1  1
 58 46  2  0
 59 45  2  0
 60 45  1  0
 61 46  1  0
 62 53  1  0
 63 62  1  0
 64 52  2  0
 65 64  1  0
 66 61  2  0
 67 58  1  0
 68 59  1  0
 69 60  2  0
 70 69  1  0
 71 66  1  0
 29 20  1  0
 14  7  1  0
 54 65  2  0
 68 70  2  0
 71 67  2  0
M  END
$$$$
