935
     RDKit          2D

 19 20  0  0  0  0  0  0  0  0999 V2000
    2.0930    1.2002    0.0000 O   0  0  0  0  0  0  0  0  0  0  0  0
    4.3227   -2.5079    0.0000 N   0  0  0  0  0  0  0  0  0  0  0  0
    4.9902   -1.3519    0.0000 N   0  0  0  0  0  0  0  0  0  0  0  0
    3.5220    2.0252    0.0000 C   0  0  0  0  0  0  0  0  0  0  0  0
    3.5220    1.2002    0.0000 C   0  0  0  0  0  0  0  0  0  0  0  0
    3.5220   -0.4499    0.0000 C   0  0  0  0  0  0  0  0  0  0  0  0
    2.8075    0.7876    0.0000 C   0  0  0  0  0  0  0  0  0  0  0  0
    2.8075   -0.0374    0.0000 C   0  0  0  0  0  0  0  0  0  0  0  0
    4.2365   -0.0374    0.0000 C   0  0  0  0  0  0  0  0  0  0  0  0
    4.2365    0.7876    0.0000 C   0  0  0  0  0  0  0  0  0  0  0  0
    3.5220    2.8502    0.0000 C   0  0  0  0  0  0  0  0  0  0  0  0
    4.3470    2.0252    0.0000 C   0  0  0  0  0  0  0  0  0  0  0  0
    2.6970    2.0252    0.0000 C   0  0  0  0  0  0  0  0  0  0  0  0
    3.5220   -1.2749    0.0000 C   0  0  0  0  0  0  0  0  0  0  0  0
    4.2365   -1.6874    0.0000 C   0  0  0  0  0  0  0  0  0  0  0  0
    2.0930   -0.4499    0.0000 C   0  0  0  0  0  0  0  0  0  0  0  0
    4.9509   -0.4499    0.0000 C   0  0  0  0  0  0  0  0  0  0  0  0
    5.1297   -2.6794    0.0000 C   0  0  0  0  0  0  0  0  0  0  0  0
    5.5422   -1.9649    0.0000 C   0  0  0  0  0  0  0  0  0  0  0  0
  1  7  1  0
  2 15  1  0
  2 18  1  0
  3 15  2  0
  3 19  1  0
  4  5  1  0
  4 11  1  0
  4 12  1  0
  4 13  1  0
  5  7  2  0
  5 10  1  0
  6  8  2  0
  6  9  1  0
  6 14  1  0
  7  8  1  0
  8 16  1  0
  9 10  2  0
  9 17  1  0
 14 15  1  0
 18 19  1  0
M  END
$$$$
