911
     RDKit          2D

 16 16  0  0  0  0  0  0  0  0999 V2000
    2.4751   -1.0473    0.0000 S   0  0  0  0  0  0  0  0  0  0  0  0
    3.3001   -1.0473    0.0000 O   0  0  0  0  0  0  0  0  0  0  0  0
    1.6500   -1.0473    0.0000 O   0  0  0  0  0  0  0  0  0  0  0  0
    5.2547    1.7973    0.0000 O   0  0  0  0  0  0  0  0  0  0  0  0
    4.8132    0.4383    0.0000 O   0  0  0  0  0  0  0  0  0  0  0  0
    3.1895    1.0153    0.0000 N   0  0  0  0  0  0  0  0  0  0  0  0
    2.7770    2.2848    0.0000 N   0  0  0  0  0  0  0  0  0  0  0  0
    4.6417    1.2452    0.0000 N   0  0  0  0  0  0  0  0  0  0  0  0
    2.4751   -0.2223    0.0000 C   0  0  0  0  0  0  0  0  0  0  0  0
    3.1895    0.1903    0.0000 C   0  0  0  0  0  0  0  0  0  0  0  0
    2.4751   -1.8723    0.0000 C   0  0  0  0  0  0  0  0  0  0  0  0
    2.5221    1.5002    0.0000 C   0  0  0  0  0  0  0  0  0  0  0  0
    3.8570    1.5002    0.0000 C   0  0  0  0  0  0  0  0  0  0  0  0
    1.7606   -2.2848    0.0000 C   0  0  0  0  0  0  0  0  0  0  0  0
    3.6021    2.2848    0.0000 C   0  0  0  0  0  0  0  0  0  0  0  0
    1.7375    1.2452    0.0000 C   0  0  0  0  0  0  0  0  0  0  0  0
  1  2  2  0
  1  3  2  0
  1  9  1  0
  1 11  1  0
  4  8  1  0
  5  8  2  0
  6 10  1  0
  6 12  1  0
  6 13  1  0
  7 12  2  0
  7 15  1  0
  8 13  1  0
  9 10  1  0
 11 14  1  0
 12 16  1  0
 13 15  2  0
M  CHG  2   4  -1   8   1
M  END
$$$$
