
     RDKit          2D

 25 28  0  0  0  0  0  0  0  0999 V2000
    3.7294   -3.9243    0.0000 C   0  0  0  0  0  0  0  0  0  0  0  0
    3.0147   -3.5121    0.0000 C   0  0  0  0  0  0  0  0  0  0  0  0
    3.7294   -4.7435    0.0000 C   0  0  0  0  0  0  0  0  0  0  0  0
    4.7048   -3.3671    0.0000 C   0  0  0  0  0  0  0  0  0  0  0  0
    3.0147   -5.1557    0.0000 O   0  0  0  0  0  0  0  0  0  0  0  0
    2.3111   -3.9243    0.0000 C   0  0  0  0  0  0  0  0  0  0  0  0
    2.3111   -4.7435    0.0000 C   0  0  0  0  0  0  0  0  0  0  0  0
    4.4440   -5.1613    0.0000 O   0  0  0  0  0  0  0  0  0  0  0  0
    3.0147   -2.6873    0.0000 O   0  0  0  0  0  0  0  0  0  0  0  0
    1.5964   -3.5121    0.0000 C   0  0  0  0  0  0  0  0  0  0  0  0
    1.5964   -5.1557    0.0000 C   0  0  0  0  0  0  0  0  0  0  0  0
    0.8818   -3.9243    0.0000 C   0  0  0  0  0  0  0  0  0  0  0  0
    0.8818   -4.7435    0.0000 C   0  0  0  0  0  0  0  0  0  0  0  0
    5.6802   -3.9243    0.0000 C   0  0  0  0  0  0  0  0  0  0  0  0
    6.3949   -3.5121    0.0000 C   0  0  0  0  0  0  0  0  0  0  0  0
    5.6802   -4.7435    0.0000 C   0  0  0  0  0  0  0  0  0  0  0  0
    6.3949   -5.1557    0.0000 O   0  0  0  0  0  0  0  0  0  0  0  0
    7.0985   -3.9243    0.0000 C   0  0  0  0  0  0  0  0  0  0  0  0
    7.0985   -4.7435    0.0000 C   0  0  0  0  0  0  0  0  0  0  0  0
    4.9655   -5.1613    0.0000 O   0  0  0  0  0  0  0  0  0  0  0  0
    6.3949   -2.6873    0.0000 O   0  0  0  0  0  0  0  0  0  0  0  0
    7.8132   -3.5121    0.0000 C   0  0  0  0  0  0  0  0  0  0  0  0
    7.8132   -5.1557    0.0000 C   0  0  0  0  0  0  0  0  0  0  0  0
    8.5279   -3.9243    0.0000 C   0  0  0  0  0  0  0  0  0  0  0  0
    8.5279   -4.7435    0.0000 C   0  0  0  0  0  0  0  0  0  0  0  0
  4  1  1  0
  2  1  2  0
  3  1  1  0
  6  2  1  0
  9  2  1  0
  5  3  1  0
  8  3  2  0
  7  5  1  0
 10  6  2  0
  7  6  1  0
 11  7  2  0
 12 10  1  0
 13 11  1  0
 13 12  2  0
  4 14  1  0
 15 14  2  0
 16 14  1  0
 18 15  1  0
 21 15  1  0
 17 16  1  0
 20 16  2  0
 19 17  1  0
 22 18  2  0
 19 18  1  0
 23 19  2  0
 24 22  1  0
 25 23  1  0
 25 24  2  0
M  END
$$$$
