301
     RDKit          2D

 30 33  0  0  1  0  0  0  0  0999 V2000
    3.8529   -0.4082    0.0000 Cl  0  0  0  0  0  0  0  0  0  0  0  0
    8.1633    0.6613    0.0000 S   0  0  0  0  0  0  0  0  0  0  0  0
    2.3014    1.9919    0.0000 F   0  0  0  0  0  0  0  0  0  0  0  0
    5.9646   -1.0066    0.0000 O   0  0  0  0  0  0  0  0  0  0  0  0
    7.8661   -2.0713    0.0000 O   0  0  0  0  0  0  0  0  0  0  0  0
    9.2251   -1.6297    0.0000 O   0  0  0  0  0  0  0  0  0  0  0  0
    4.9521   -0.0139    0.0000 O   0  0  0  0  0  0  0  0  0  0  0  0
    3.9815    2.5577    0.0000 O   0  0  0  0  0  0  0  0  0  0  0  0
    7.3786   -0.4186    0.0000 N   0  0  0  0  0  0  0  0  0  0  0  0
    5.9646    0.9944    0.0000 N   0  0  0  0  0  0  0  0  0  0  0  0
    3.3970    1.9756    0.0000 N   0  0  0  0  0  0  0  0  0  0  0  0
    7.3786    0.4064    0.0000 C   0  0  0  0  0  0  0  0  0  0  0  0
    8.6481   -0.0061    0.0000 C   0  0  0  0  0  0  0  0  0  0  0  0
    8.1633   -0.6735    0.0000 C   0  0  0  0  0  0  0  0  0  0  0  0
    6.5468    0.4099    0.0000 C   0  0  0  0  0  0  0  0  0  0  0  0
    6.5468   -0.4220    0.0000 C   0  0  0  0  0  0  0  0  0  0  0  0
    9.3156    0.4788    0.0000 C   0  0  0  0  0  0  0  0  0  0  0  0
    9.3156   -0.4910    0.0000 C   0  0  0  0  0  0  0  0  0  0  0  0
    8.4182   -1.4581    0.0000 C   0  0  0  0  0  0  0  0  0  0  0  0
    5.1673    0.7825    0.0000 C   0  0  0  0  0  0  0  0  0  0  0  0
    4.5851    1.3671    0.0000 C   0  0  0  0  0  0  0  0  0  0  0  0
    3.7699    1.2397    0.0000 C   0  0  0  0  0  0  0  0  0  0  0  0
    4.7158    2.1816    0.0000 C   0  0  0  0  0  0  0  0  0  0  0  0
    3.0772    0.7918    0.0000 C   0  0  0  0  0  0  0  0  0  0  0  0
    5.4517    2.5547    0.0000 C   0  0  0  0  0  0  0  0  0  0  0  0
    3.1186   -0.0322    0.0000 C   0  0  0  0  0  0  0  0  0  0  0  0
    2.3429    1.1679    0.0000 C   0  0  0  0  0  0  0  0  0  0  0  0
    2.4258   -0.4802    0.0000 C   0  0  0  0  0  0  0  0  0  0  0  0
    1.6500    0.7199    0.0000 C   0  0  0  0  0  0  0  0  0  0  0  0
    1.6915   -0.1040    0.0000 C   0  0  0  0  0  0  0  0  0  0  0  0
  1 26  1  0
 12  2  1  1
  2 13  1  0
  3 27  1  0
  4 16  2  0
  5 19  1  0
  6 19  2  0
  7 20  2  0
  8 11  1  0
  8 23  1  0
  9 12  1  0
  9 14  1  0
  9 16  1  0
 15 10  1  1
 10 20  1  0
 11 22  2  0
 12 15  1  0
 13 14  1  0
 13 17  1  0
 13 18  1  0
 14 19  1  6
 15 16  1  0
 20 21  1  0
 21 22  1  0
 21 23  2  0
 22 24  1  0
 23 25  1  0
 24 26  2  0
 24 27  1  0
 26 28  1  0
 27 29  2  0
 28 30  2  0
 29 30  1  0
M  END
$$$$
