809
     RDKit          2D

 21 22  0  0  1  0  0  0  0  0999 V2000
    4.2365   -0.8250    0.0000 O   0  0  0  0  0  0  0  0  0  0  0  0
    2.0930    0.4125    0.0000 O   0  0  0  0  0  0  0  0  0  0  0  0
    3.5220    0.4125    0.0000 N   0  0  0  0  0  0  0  0  0  0  0  0
    4.2365    3.3001    0.0000 N   0  0  0  0  0  0  0  0  0  0  0  0
    2.8075   -0.8250    0.0000 C   0  0  0  0  0  0  0  0  0  0  0  0
    3.5220   -0.4125    0.0000 C   0  0  0  0  0  0  0  0  0  0  0  0
    4.2365    0.8250    0.0000 C   0  0  0  0  0  0  0  0  0  0  0  0
    2.8075   -1.6500    0.0000 C   0  0  0  0  0  0  0  0  0  0  0  0
    2.8075    0.8250    0.0000 C   0  0  0  0  0  0  0  0  0  0  0  0
    2.0930   -0.4125    0.0000 C   0  0  0  0  0  0  0  0  0  0  0  0
    4.2365    1.6500    0.0000 C   0  0  0  0  0  0  0  0  0  0  0  0
    3.5220   -2.0625    0.0000 C   0  0  0  0  0  0  0  0  0  0  0  0
    2.0930   -2.0625    0.0000 C   0  0  0  0  0  0  0  0  0  0  0  0
    2.8075    1.6500    0.0000 C   0  0  0  0  0  0  0  0  0  0  0  0
    4.9509    2.0625    0.0000 C   0  0  0  0  0  0  0  0  0  0  0  0
    3.5220    2.0625    0.0000 C   0  0  0  0  0  0  0  0  0  0  0  0
    3.5220   -2.8876    0.0000 C   0  0  0  0  0  0  0  0  0  0  0  0
    2.0930   -2.8876    0.0000 C   0  0  0  0  0  0  0  0  0  0  0  0
    2.8075   -3.3001    0.0000 C   0  0  0  0  0  0  0  0  0  0  0  0
    4.9509    2.8876    0.0000 C   0  0  0  0  0  0  0  0  0  0  0  0
    3.5220    2.8876    0.0000 C   0  0  0  0  0  0  0  0  0  0  0  0
  1  6  2  0
  2 10  1  0
  3  6  1  0
  3  7  1  0
  3  9  1  0
  4 20  2  0
  4 21  1  0
  5  6  1  0
  5  8  1  0
  5 10  1  0
  7 11  1  0
  8 12  2  0
  8 13  1  0
  9 14  1  0
 11 15  2  0
 11 16  1  0
 12 17  1  0
 13 18  2  0
 15 20  1  0
 16 21  2  0
 17 19  2  0
 18 19  1  0
M  END
$$$$
