964
     RDKit          2D

 15 16  0  0  0  0  0  0  0  0999 V2000
    1.6500    0.1653    0.0000 Cl  0  0  0  0  0  0  0  0  0  0  0  0
    4.5080    0.1653    0.0000 Cl  0  0  0  0  0  0  0  0  0  0  0  0
    3.8797    2.2233    0.0000 N   0  0  0  0  0  0  0  0  0  0  0  0
    3.0791    0.9903    0.0000 N   0  0  0  0  0  0  0  0  0  0  0  0
    4.5472    1.0672    0.0000 N   0  0  0  0  0  0  0  0  0  0  0  0
    3.0791   -2.3098    0.0000 N   0  0  0  0  0  0  0  0  0  0  0  0
    4.6868    2.3948    0.0000 C   0  0  0  0  0  0  0  0  0  0  0  0
    5.0993    1.6803    0.0000 C   0  0  0  0  0  0  0  0  0  0  0  0
    3.7935    1.4028    0.0000 C   0  0  0  0  0  0  0  0  0  0  0  0
    3.0791    0.1653    0.0000 C   0  0  0  0  0  0  0  0  0  0  0  0
    2.3645   -0.2473    0.0000 C   0  0  0  0  0  0  0  0  0  0  0  0
    3.7935   -0.2473    0.0000 C   0  0  0  0  0  0  0  0  0  0  0  0
    3.0791   -1.4848    0.0000 C   0  0  0  0  0  0  0  0  0  0  0  0
    2.3645   -1.0723    0.0000 C   0  0  0  0  0  0  0  0  0  0  0  0
    3.7935   -1.0723    0.0000 C   0  0  0  0  0  0  0  0  0  0  0  0
  1 11  1  0
  2 12  1  0
  3  7  1  0
  3  9  1  0
  4  9  1  0
  4 10  1  0
  5  8  1  0
  5  9  2  0
  6 13  1  0
  7  8  1  0
 10 11  2  0
 10 12  1  0
 11 14  1  0
 12 15  2  0
 13 14  2  0
 13 15  1  0
M  END
$$$$
