978
     RDKit          2D

 25 27  0  0  1  0  0  0  0  0999 V2000
    4.9508   -1.0455    0.0000 F   0  0  0  0  0  0  0  0  0  0  0  0
    3.5219    1.4295    0.0000 F   0  0  0  0  0  0  0  0  0  0  0  0
    6.3933    2.2830    0.0000 O   0  0  0  0  0  0  0  0  0  0  0  0
    8.5793    1.0397    0.0000 O   0  0  0  0  0  0  0  0  0  0  0  0
    7.8600    2.2744    0.0000 O   0  0  0  0  0  0  0  0  0  0  0  0
    3.5219   -0.2205    0.0000 N   0  0  0  0  0  0  0  0  0  0  0  0
    2.0929   -1.0455    0.0000 N   0  0  0  0  0  0  0  0  0  0  0  0
    6.4028   -0.2492    0.0000 N   0  0  0  0  0  0  0  0  0  0  0  0
    2.8075   -1.4580    0.0000 C   0  0  0  0  0  0  0  0  0  0  0  0
    3.5219   -1.0455    0.0000 C   0  0  0  0  0  0  0  0  0  0  0  0
    2.8075    0.1920    0.0000 C   0  0  0  0  0  0  0  0  0  0  0  0
    2.0929   -0.2205    0.0000 C   0  0  0  0  0  0  0  0  0  0  0  0
    4.2364    0.1920    0.0000 C   0  0  0  0  0  0  0  0  0  0  0  0
    2.8075   -2.2830    0.0000 C   0  0  0  0  0  0  0  0  0  0  0  0
    4.9508   -0.2205    0.0000 C   0  0  0  0  0  0  0  0  0  0  0  0
    5.6654    0.1920    0.0000 C   0  0  0  0  0  0  0  0  0  0  0  0
    4.2364    1.0170    0.0000 C   0  0  0  0  0  0  0  0  0  0  0  0
    5.6654    1.0170    0.0000 C   0  0  0  0  0  0  0  0  0  0  0  0
    4.9508    1.4295    0.0000 C   0  0  0  0  0  0  0  0  0  0  0  0
    6.3933   -1.0741    0.0000 C   0  0  0  0  0  0  0  0  0  0  0  0
    6.4028    1.4581    0.0000 C   0  0  0  0  0  0  0  0  0  0  0  0
    7.1504    0.1748    0.0000 C   0  0  0  0  0  0  0  0  0  0  0  0
    7.1504    1.0341    0.0000 C   0  0  0  0  0  0  0  0  0  0  0  0
    7.1029   -1.4948    0.0000 C   0  0  0  0  0  0  0  0  0  0  0  0
    7.8632    1.4494    0.0000 C   0  0  0  0  0  0  0  0  0  0  0  0
  1 15  1  0
  2 17  1  0
  3 21  2  0
  4 25  1  0
  5 25  2  0
  6 10  1  0
  6 11  1  0
  6 13  1  0
  7  9  1  0
  7 12  1  0
  8 16  1  0
  8 20  1  0
  8 22  1  0
  9 10  1  0
  9 14  1  0
 11 12  1  0
 13 15  1  0
 13 17  2  0
 15 16  2  0
 16 18  1  0
 17 19  1  0
 18 19  2  0
 18 21  1  0
 20 24  1  0
 21 23  1  0
 22 23  2  0
 23 25  1  0
M  END
$$$$
