
     RDKit          2D

 14 15  0  0  0  0  0  0  0  0999 V2000
   -0.5893    0.9429    0.0000 C   0  0  0  0  0  0  0  0  0  0  0  0
   -1.3038    0.5304    0.0000 C   0  0  0  0  0  0  0  0  0  0  0  0
   -1.3038   -0.2947    0.0000 C   0  0  0  0  0  0  0  0  0  0  0  0
   -0.5893   -0.7072    0.0000 C   0  0  0  0  0  0  0  0  0  0  0  0
    0.1252   -0.2947    0.0000 C   0  0  0  0  0  0  0  0  0  0  0  0
    0.1252    0.5304    0.0000 C   0  0  0  0  0  0  0  0  0  0  0  0
    0.9098    0.7853    0.0000 S   0  0  0  0  0  0  0  0  0  0  0  0
    0.9098   -0.5496    0.0000 N   0  0  0  0  0  0  0  0  0  0  0  0
    1.3947    0.1178    0.0000 C   0  0  0  0  0  0  0  0  0  0  0  0
   -2.0182    0.9429    0.0000 N   0  0  0  0  0  0  0  0  0  0  0  0
    2.2197    0.1178    0.0000 N   0  0  0  0  0  0  0  0  0  0  0  0
   -2.7327    0.5304    0.0000 C   0  0  0  0  0  0  0  0  0  0  0  0
   -3.4472    0.9429    0.0000 C   0  0  0  0  0  0  0  0  0  0  0  0
   -4.1616    0.5304    0.0000 C   0  0  0  0  0  0  0  0  0  0  0  0
  1  2  1  0
  1  6  1  0
  2  3  1  0
  3  4  1  0
  4  5  1  0
  5  8  1  0
  6  5  2  0
  7  6  1  0
  7  9  1  0
  8  9  2  0
  2 10  1  6
  9 11  1  0
 10 12  1  0
 12 13  1  0
 13 14  1  0
M  END
$$$$
