608
     RDKit          2D

 22 23  0  0  1  0  0  0  0  0999 V2000
    8.1347    3.3056    0.0000 Cl  0  0  0  0  0  0  0  0  0  0  0  0
    3.0790   -2.0768    0.0000 N   0  0  0  0  0  0  0  0  0  0  0  0
    5.2223    0.8107    0.0000 N   0  0  0  0  0  0  0  0  0  0  0  0
    5.2223    3.2857    0.0000 N   0  0  0  0  0  0  0  0  0  0  0  0
    4.5079   -0.4268    0.0000 C   0  0  0  0  0  0  0  0  0  0  0  0
    3.7934   -0.8393    0.0000 C   0  0  0  0  0  0  0  0  0  0  0  0
    4.5079    0.3982    0.0000 C   0  0  0  0  0  0  0  0  0  0  0  0
    3.7934   -1.6643    0.0000 C   0  0  0  0  0  0  0  0  0  0  0  0
    3.7934    0.8107    0.0000 C   0  0  0  0  0  0  0  0  0  0  0  0
    3.0790   -2.9018    0.0000 C   0  0  0  0  0  0  0  0  0  0  0  0
    2.3644   -1.6643    0.0000 C   0  0  0  0  0  0  0  0  0  0  0  0
    5.2223    1.6357    0.0000 C   0  0  0  0  0  0  0  0  0  0  0  0
    5.9369    2.0482    0.0000 C   0  0  0  0  0  0  0  0  0  0  0  0
    2.3644   -3.3143    0.0000 C   0  0  0  0  0  0  0  0  0  0  0  0
    1.6500   -2.0768    0.0000 C   0  0  0  0  0  0  0  0  0  0  0  0
    4.5079    2.0482    0.0000 C   0  0  0  0  0  0  0  0  0  0  0  0
    5.9369    2.8732    0.0000 C   0  0  0  0  0  0  0  0  0  0  0  0
    6.6743    1.6071    0.0000 C   0  0  0  0  0  0  0  0  0  0  0  0
    4.5079    2.8732    0.0000 C   0  0  0  0  0  0  0  0  0  0  0  0
    6.6743    3.3143    0.0000 C   0  0  0  0  0  0  0  0  0  0  0  0
    7.4219    2.0311    0.0000 C   0  0  0  0  0  0  0  0  0  0  0  0
    7.4219    2.8904    0.0000 C   0  0  0  0  0  0  0  0  0  0  0  0
  1 22  1  0
  2  8  1  0
  2 10  1  0
  2 11  1  0
  3  7  1  0
  3 12  1  0
  4 17  2  0
  4 19  1  0
  5  6  1  0
  5  7  1  0
  6  8  1  0
  7  9  1  0
 10 14  1  0
 11 15  1  0
 12 13  2  0
 12 16  1  0
 13 17  1  0
 13 18  1  0
 16 19  2  0
 17 20  1  0
 18 21  2  0
 20 22  2  0
 21 22  1  0
M  END
$$$$
