251
     RDKit          2D

 36 40  0  0  1  0  0  0  0  0999 V2000
    2.8383   -1.3940    0.0000 Cl  0  0  0  0  0  0  0  0  0  0  0  0
    4.2672   -3.8691    0.0000 Cl  0  0  0  0  0  0  0  0  0  0  0  0
    5.0923   -0.5690    0.0000 O   0  0  0  0  0  0  0  0  0  0  0  0
    4.0123    0.2156    0.0000 O   0  0  0  0  0  0  0  0  0  0  0  0
    6.3034    1.2775    0.0000 O   0  0  0  0  0  0  0  0  0  0  0  0
   11.0113    2.8072    0.0000 N   0  0  0  0  0  0  0  0  0  0  0  0
    9.4420    2.2973    0.0000 N   0  0  0  0  0  0  0  0  0  0  0  0
    2.8695   -0.2719    0.0000 N   0  0  0  0  0  0  0  0  0  0  0  0
    2.9558    0.5486    0.0000 N   0  0  0  0  0  0  0  0  0  0  0  0
    1.6500    0.2710    0.0000 N   0  0  0  0  0  0  0  0  0  0  0  0
   10.8397    2.0002    0.0000 C   0  0  0  0  0  0  0  0  0  0  0  0
   10.3981    3.3592    0.0000 C   0  0  0  0  0  0  0  0  0  0  0  0
   10.0551    1.7452    0.0000 C   0  0  0  0  0  0  0  0  0  0  0  0
    9.6135    3.1043    0.0000 C   0  0  0  0  0  0  0  0  0  0  0  0
    4.2672   -0.5690    0.0000 C   0  0  0  0  0  0  0  0  0  0  0  0
   11.7959    3.0621    0.0000 C   0  0  0  0  0  0  0  0  0  0  0  0
    5.3473    0.2156    0.0000 C   0  0  0  0  0  0  0  0  0  0  0  0
    4.6798    0.7005    0.0000 C   0  0  0  0  0  0  0  0  0  0  0  0
    3.4826   -0.8240    0.0000 C   0  0  0  0  0  0  0  0  0  0  0  0
    8.6573    2.0423    0.0000 C   0  0  0  0  0  0  0  0  0  0  0  0
    4.2672   -1.3940    0.0000 C   0  0  0  0  0  0  0  0  0  0  0  0
    6.1319    0.4705    0.0000 C   0  0  0  0  0  0  0  0  0  0  0  0
   11.9674    3.8691    0.0000 C   0  0  0  0  0  0  0  0  0  0  0  0
   12.4090    2.5101    0.0000 C   0  0  0  0  0  0  0  0  0  0  0  0
    8.4858    1.2354    0.0000 C   0  0  0  0  0  0  0  0  0  0  0  0
    8.0443    2.5944    0.0000 C   0  0  0  0  0  0  0  0  0  0  0  0
    7.0881    1.5325    0.0000 C   0  0  0  0  0  0  0  0  0  0  0  0
    3.5528   -1.8065    0.0000 C   0  0  0  0  0  0  0  0  0  0  0  0
    4.9818   -1.8065    0.0000 C   0  0  0  0  0  0  0  0  0  0  0  0
    7.7011    0.9805    0.0000 C   0  0  0  0  0  0  0  0  0  0  0  0
    7.2596    2.3394    0.0000 C   0  0  0  0  0  0  0  0  0  0  0  0
    3.5528   -2.6316    0.0000 C   0  0  0  0  0  0  0  0  0  0  0  0
    4.9818   -2.6316    0.0000 C   0  0  0  0  0  0  0  0  0  0  0  0
    2.0625   -0.4434    0.0000 C   0  0  0  0  0  0  0  0  0  0  0  0
    4.2672   -3.0441    0.0000 C   0  0  0  0  0  0  0  0  0  0  0  0
    2.2021    0.8841    0.0000 C   0  0  0  0  0  0  0  0  0  0  0  0
  1 28  1  0
  2 35  1  0
  3 15  1  0
  3 17  1  0
  4 15  1  0
  4 18  1  0
  5 22  1  0
  5 27  1  0
  6 11  1  0
  6 12  1  0
  6 16  1  0
  7 13  1  0
  7 14  1  0
  7 20  1  0
  8  9  1  0
  8 19  1  0
  8 34  1  0
  9 36  2  0
 10 34  2  0
 10 36  1  0
 11 13  1  0
 12 14  1  0
 15 19  1  6
 15 21  1  0
 16 23  1  0
 16 24  1  0
 17 18  1  0
 17 22  1  6
 20 25  2  0
 20 26  1  0
 21 28  2  0
 21 29  1  0
 25 30  1  0
 26 31  2  0
 27 30  2  0
 27 31  1  0
 28 32  1  0
 29 33  2  0
 32 35  2  0
 33 35  1  0
M  END
$$$$
