718
     RDKit          2D

 34 35  0  0  0  0  0  0  0  0999 V2000
    6.2431   -0.8927    0.0000 P   0  0  0  0  0  0  0  0  0  0  0  0
    5.1795    0.0615    0.0000 O   0  0  0  0  0  0  0  0  0  0  0  0
    7.9816    0.4271    0.0000 O   0  0  0  0  0  0  0  0  0  0  0  0
    7.5630   -2.6313    0.0000 O   0  0  0  0  0  0  0  0  0  0  0  0
    7.0273   -0.6364    0.0000 O   0  0  0  0  0  0  0  0  0  0  0  0
    6.4994   -1.6769    0.0000 O   0  0  0  0  0  0  0  0  0  0  0  0
    7.5376    1.7854    0.0000 O   0  0  0  0  0  0  0  0  0  0  0  0
    8.9212   -2.1874    0.0000 O   0  0  0  0  0  0  0  0  0  0  0  0
    5.4589   -1.1491    0.0000 O   0  0  0  0  0  0  0  0  0  0  0  0
    3.8597    1.8001    0.0000 N   0  0  0  0  0  0  0  0  0  0  0  0
    3.8597    3.1280    0.0000 N   0  0  0  0  0  0  0  0  0  0  0  0
    2.3645    1.6390    0.0000 N   0  0  0  0  0  0  0  0  0  0  0  0
    1.6500    2.8765    0.0000 N   0  0  0  0  0  0  0  0  0  0  0  0
    2.3645    4.1140    0.0000 N   0  0  0  0  0  0  0  0  0  0  0  0
    8.9360    1.4907    0.0000 C   0  0  0  0  0  0  0  0  0  0  0  0
    8.6266   -3.5856    0.0000 C   0  0  0  0  0  0  0  0  0  0  0  0
    9.1922    0.7065    0.0000 C   0  0  0  0  0  0  0  0  0  0  0  0
    8.6796    2.2749    0.0000 C   0  0  0  0  0  0  0  0  0  0  0  0
    9.7201    1.7470    0.0000 C   0  0  0  0  0  0  0  0  0  0  0  0
    7.8423   -3.8419    0.0000 C   0  0  0  0  0  0  0  0  0  0  0  0
    9.4108   -3.3293    0.0000 C   0  0  0  0  0  0  0  0  0  0  0  0
    8.8828   -4.3698    0.0000 C   0  0  0  0  0  0  0  0  0  0  0  0
    8.1517    1.2344    0.0000 C   0  0  0  0  0  0  0  0  0  0  0  0
    8.3703   -2.8014    0.0000 C   0  0  0  0  0  0  0  0  0  0  0  0
    4.1159    1.0159    0.0000 C   0  0  0  0  0  0  0  0  0  0  0  0
    4.9232    0.8458    0.0000 C   0  0  0  0  0  0  0  0  0  0  0  0
    5.9868   -0.1086    0.0000 C   0  0  0  0  0  0  0  0  0  0  0  0
    3.0790    2.0515    0.0000 C   0  0  0  0  0  0  0  0  0  0  0  0
    7.1974    0.1709    0.0000 C   0  0  0  0  0  0  0  0  0  0  0  0
    7.3066   -1.8470    0.0000 C   0  0  0  0  0  0  0  0  0  0  0  0
    3.0790    2.8765    0.0000 C   0  0  0  0  0  0  0  0  0  0  0  0
    4.3411    2.4640    0.0000 C   0  0  0  0  0  0  0  0  0  0  0  0
    2.3645    3.2890    0.0000 C   0  0  0  0  0  0  0  0  0  0  0  0
    1.6500    2.0515    0.0000 C   0  0  0  0  0  0  0  0  0  0  0  0
  1  5  1  0
  1  6  1  0
  1  9  2  0
  1 27  1  0
  2 26  1  0
  2 27  1  0
  3 23  1  0
  3 29  1  0
  4 24  1  0
  4 30  1  0
  5 29  1  0
  6 30  1  0
  7 23  2  0
  8 24  2  0
 10 25  1  0
 10 28  1  0
 10 32  1  0
 11 31  1  0
 11 32  2  0
 12 28  2  0
 12 34  1  0
 13 33  1  0
 13 34  2  0
 14 33  1  0
 15 17  1  0
 15 18  1  0
 15 19  1  0
 15 23  1  0
 16 20  1  0
 16 21  1  0
 16 22  1  0
 16 24  1  0
 25 26  1  0
 28 31  1  0
 31 33  2  0
M  END
$$$$
