 
     RDKit          2D

100103  0  0  1  0  0  0  0  0999 V2000
   14.4329  -12.5210    0.0000 S   0  0  0  0  0  0  0  0  0  0  0  0
   15.2579  -12.5210    0.0000 C   0  0  0  0  0  0  0  0  0  0  0  0
   15.5054  -11.7372    0.0000 C   0  0  0  0  0  0  0  0  0  0  0  0
   14.8454  -11.2422    0.0000 N   0  0  0  0  0  0  0  0  0  0  0  0
   14.1854  -11.7372    0.0000 C   0  0  0  0  0  0  0  0  0  0  0  0
   13.4842  -11.3247    0.0000 C   0  0  0  0  0  0  0  0  0  0  0  0
   12.7416  -11.7372    0.0000 N   0  0  0  0  0  0  0  0  0  0  0  0
   16.2067  -11.3247    0.0000 C   0  0  0  0  0  0  0  0  0  0  0  0
   16.9492  -11.7372    0.0000 N   0  0  0  0  0  0  0  0  0  0  0  0
   17.6505  -11.3247    0.0000 C   0  0  0  0  0  0  0  0  0  0  0  0
   18.3518  -11.7372    0.0000 C   0  0  0  0  0  0  0  0  0  0  0  0
   19.0943  -11.3247    0.0000 N   0  0  0  0  0  0  0  0  0  0  0  0
   19.7955  -11.7372    0.0000 C   0  0  0  0  0  0  0  0  0  0  0  0
   20.4968  -11.3247    0.0000 C   0  0  0  0  0  0  0  0  0  0  0  0
   21.2393  -11.7372    0.0000 N   0  0  0  0  0  0  0  0  0  0  0  0
   21.9406  -11.3247    0.0000 C   0  0  0  0  0  0  0  0  0  0  0  0
   22.6419  -11.7372    0.0000 C   0  0  0  0  0  0  0  0  0  0  0  0
   23.3844  -11.3247    0.0000 N   0  0  0  0  0  0  0  0  0  0  0  0
   24.0857  -11.7372    0.0000 C   0  0  0  0  0  0  0  0  0  0  0  0
   24.7869  -11.3247    0.0000 C   0  0  0  0  0  0  0  0  0  0  0  0
   25.4881  -11.7372    0.0000 N   0  0  0  0  0  0  0  0  0  0  0  0
   26.2307  -11.3247    0.0000 C   0  0  0  0  0  0  0  0  0  0  0  0
   26.9319  -11.7372    0.0000 C   0  0  0  0  0  0  0  0  0  0  0  0
   27.6332  -11.3247    0.0000 N   0  0  0  0  0  0  0  0  0  0  0  0
   13.4842  -10.4996    0.0000 C   0  0  0  0  0  0  0  0  0  0  0  0
   14.1854  -10.0872    0.0000 C   0  0  0  0  0  0  0  0  0  0  0  0
   12.7829  -10.0872    0.0000 C   0  0  0  0  0  0  0  0  0  0  0  0
   12.7829   -9.2621    0.0000 C   0  0  0  0  0  0  0  0  0  0  0  0
   16.2067  -10.4996    0.0000 O   0  0  0  0  0  0  0  0  0  0  0  0
   18.3518  -12.5622    0.0000 O   0  0  0  0  0  0  0  0  0  0  0  0
   20.4968  -10.4996    0.0000 O   0  0  0  0  0  0  0  0  0  0  0  0
   22.6419  -12.5622    0.0000 O   0  0  0  0  0  0  0  0  0  0  0  0
   24.7869  -10.4996    0.0000 O   0  0  0  0  0  0  0  0  0  0  0  0
   26.9319  -12.5622    0.0000 O   0  0  0  0  0  0  0  0  0  0  0  0
   17.5680  -10.1696    0.0000 C   0  0  0  0  0  0  0  0  0  0  0  0
   18.2692   -9.7571    0.0000 C   0  0  0  0  0  0  0  0  0  0  0  0
   18.9705  -10.1696    0.0000 C   0  0  0  0  0  0  0  0  0  0  0  0
   18.2692   -8.9321    0.0000 C   0  0  0  0  0  0  0  0  0  0  0  0
   19.7955  -12.5622    0.0000 C   0  0  0  0  0  0  0  0  0  0  0  0
   19.0943  -12.9747    0.0000 C   0  0  0  0  0  0  0  0  0  0  0  0
   19.0943  -13.7997    0.0000 C   0  0  0  0  0  0  0  0  0  0  0  0
   18.3518  -14.2122    0.0000 O   0  0  0  0  0  0  0  0  0  0  0  0
   19.7955  -14.2122    0.0000 O   0  0  0  0  0  0  0  0  0  0  0  0
   21.9406  -10.4996    0.0000 C   0  0  0  0  0  0  0  0  0  0  0  0
   21.2393  -10.0872    0.0000 C   0  0  0  0  0  0  0  0  0  0  0  0
   22.6419  -10.0872    0.0000 C   0  0  0  0  0  0  0  0  0  0  0  0
   21.2393   -9.2621    0.0000 C   0  0  0  0  0  0  0  0  0  0  0  0
   24.0857  -12.5622    0.0000 C   0  0  0  0  0  0  0  0  0  0  0  0
   26.2307  -10.4996    0.0000 C   0  0  0  0  0  0  0  0  0  0  0  0
   28.3345  -11.7372    0.0000 C   0  0  0  0  0  0  0  0  0  0  0  0
   28.3345  -12.9747    0.0000 C   0  0  0  0  0  0  0  0  0  0  0  0
   27.6332  -13.3872    0.0000 O   0  0  0  0  0  0  0  0  0  0  0  0
   29.0770  -13.3872    0.0000 N   0  0  0  0  0  0  0  0  0  0  0  0
   29.0770  -14.5010    0.0000 C   0  0  0  0  0  0  0  0  0  0  0  0
   28.3345  -14.9135    0.0000 C   0  0  0  0  0  0  0  0  0  0  0  0
   28.3345  -15.7385    0.0000 N   0  0  0  0  0  0  0  0  0  0  0  0
   27.6332  -14.5010    0.0000 O   0  0  0  0  0  0  0  0  0  0  0  0
   27.6332  -16.1510    0.0000 C   0  0  0  0  0  0  0  0  0  0  0  0
   26.9319  -15.7385    0.0000 C   0  0  0  0  0  0  0  0  0  0  0  0
   26.1894  -16.1510    0.0000 N   0  0  0  0  0  0  0  0  0  0  0  0
   26.9319  -14.9135    0.0000 O   0  0  0  0  0  0  0  0  0  0  0  0
   25.4750  -15.7385    0.0000 C   0  0  0  0  0  0  0  0  0  0  0  0
   24.7605  -16.1510    0.0000 C   0  0  0  0  0  0  0  0  0  0  0  0
   24.0460  -15.7385    0.0000 N   0  0  0  0  0  0  0  0  0  0  0  0
   24.7605  -16.9760    0.0000 O   0  0  0  0  0  0  0  0  0  0  0  0
   23.3712  -12.9747    0.0000 C   0  0  0  0  0  0  0  0  0  0  0  0
   26.9451  -10.0872    0.0000 C   0  0  0  0  0  0  0  0  0  0  0  0
   26.9451   -9.2621    0.0000 C   0  0  0  0  0  0  0  0  0  0  0  0
   26.2307   -8.8496    0.0000 N   0  0  0  0  0  0  0  0  0  0  0  0
   29.0490  -11.3247    0.0000 C   0  0  0  0  0  0  0  0  0  0  0  0
   29.7535  -11.7315    0.0000 C   0  0  0  0  0  0  0  0  0  0  0  0
   29.0490  -10.4998    0.0000 C   0  0  0  0  0  0  0  0  0  0  0  0
   29.7635  -10.0872    0.0000 C   0  0  0  0  0  0  0  0  0  0  0  0
   29.7915  -14.9135    0.0000 C   0  0  0  0  0  0  0  0  0  0  0  0
   30.5060  -14.5010    0.0000 C   0  0  0  0  0  0  0  0  0  0  0  0
   31.2315  -14.9200    0.0000 C   0  0  0  0  0  0  0  0  0  0  0  0
   31.9460  -14.5076    0.0000 C   0  0  0  0  0  0  0  0  0  0  0  0
   31.9461  -13.6826    0.0000 C   0  0  0  0  0  0  0  0  0  0  0  0
   31.2206  -13.2636    0.0000 C   0  0  0  0  0  0  0  0  0  0  0  0
   30.5061  -13.6759    0.0000 C   0  0  0  0  0  0  0  0  0  0  0  0
   27.6332  -16.9760    0.0000 C   0  0  0  0  0  0  0  0  0  0  0  0
   28.3477  -17.3885    0.0000 C   0  0  0  0  0  0  0  0  0  0  0  0
   28.4338  -18.2076    0.0000 N   0  0  0  0  0  0  0  0  0  0  0  0
   29.2393  -18.3788    0.0000 C   0  0  0  0  0  0  0  0  0  0  0  0
   29.6511  -17.6656    0.0000 N   0  0  0  0  0  0  0  0  0  0  0  0
   29.1000  -17.0536    0.0000 C   0  0  0  0  0  0  0  0  0  0  0  0
   23.3315  -16.1510    0.0000 C   0  0  0  0  0  0  0  0  0  0  0  0
   22.6170  -15.7385    0.0000 C   0  0  0  0  0  0  0  0  0  0  0  0
   22.6170  -14.9135    0.0000 N   0  0  0  0  0  0  0  0  0  0  0  0
   21.9025  -16.1510    0.0000 O   0  0  0  0  0  0  0  0  0  0  0  0
   23.3315  -16.9760    0.0000 C   0  0  0  0  0  0  0  0  0  0  0  0
   22.6170  -17.3885    0.0000 C   0  0  0  0  0  0  0  0  0  0  0  0
   22.6170  -18.2135    0.0000 O   0  0  0  0  0  0  0  0  0  0  0  0
   21.9025  -16.9760    0.0000 N   0  0  0  0  0  0  0  0  0  0  0  0
   23.3712  -13.7997    0.0000 C   0  0  0  0  0  0  0  0  0  0  0  0
   25.4750  -14.5835    0.0000 C   0  0  0  0  0  0  0  0  0  0  0  0
   22.6566  -14.2122    0.0000 C   0  0  0  0  0  0  0  0  0  0  0  0
   24.7605  -14.1710    0.0000 C   0  0  0  0  0  0  0  0  0  0  0  0
   24.0460  -14.5835    0.0000 O   0  0  0  0  0  0  0  0  0  0  0  0
   24.7605  -13.3460    0.0000 O   0  0  0  0  0  0  0  0  0  0  0  0
  1  2  1  0
  3  2  1  0
  3  4  1  0
  4  5  2  0
  1  5  1  0
  5  6  1  0
  6  7  1  1
  3  8  1  6
  8  9  1  0
  9 10  1  0
 10 11  1  0
 11 12  1  0
 12 13  1  0
 13 14  1  0
 14 15  1  0
 16 15  1  1
 16 17  1  0
 17 18  1  0
 19 18  1  6
 19 20  1  0
 20 21  1  0
 21 22  1  0
 22 23  1  0
 23 24  1  0
  6 25  1  0
 25 26  1  6
 25 27  1  0
 27 28  1  0
  8 29  2  0
 11 30  2  0
 14 31  2  0
 17 32  2  0
 20 33  2  0
 23 34  2  0
 10 35  1  1
 35 36  1  0
 36 37  1  0
 36 38  1  0
 13 39  1  1
 39 40  1  0
 40 41  1  0
 41 42  1  0
 41 43  2  0
 16 44  1  0
 44 45  1  0
 44 46  1  6
 45 47  1  0
 19 48  1  0
 22 49  1  6
 50 24  1  1
 50 51  1  0
 51 52  2  0
 51 53  1  0
 53 54  1  0
 54 55  1  0
 55 56  1  0
 55 57  2  0
 56 58  1  0
 58 59  1  0
 59 60  1  0
 59 61  2  0
 60 62  1  0
 62 63  1  0
 63 64  1  0
 63 65  2  0
 48 66  1  0
 49 67  1  0
 67 68  1  0
 68 69  1  0
 50 70  1  0
 70 71  1  6
 70 72  1  0
 72 73  1  0
 54 74  1  6
 74 75  1  0
 75 76  2  0
 76 77  1  0
 77 78  2  0
 78 79  1  0
 79 80  2  0
 75 80  1  0
 58 81  1  1
 81 82  1  0
 82 83  1  0
 83 84  2  0
 84 85  1  0
 85 86  1  0
 82 86  2  0
 64 87  1  0
 87 88  1  0
 88 89  1  0
 88 90  2  0
 87 91  1  1
 91 92  1  0
 92 93  2  0
 92 94  1  0
 66 95  1  0
 62 96  1  1
 95 97  1  0
 89 97  1  0
 96 98  1  0
 98 99  2  0
 98100  1  0
M  END
$$$$
