481
     RDKit          2D

 34 38  0  0  0  0  0  0  0  0999 V2000
    4.5741   -3.8233    0.0000 S   0  0  0  0  0  0  0  0  0  0  0  0
    2.6265    0.7450    0.0000 O   0  0  0  0  0  0  0  0  0  0  0  0
    5.6378   -1.5411    0.0000 O   0  0  0  0  0  0  0  0  0  0  0  0
    1.6500   -3.9843    0.0000 O   0  0  0  0  0  0  0  0  0  0  0  0
    8.3557   -3.1593    0.0000 O   0  0  0  0  0  0  0  0  0  0  0  0
    2.5882    2.9275    0.0000 N   0  0  0  0  0  0  0  0  0  0  0  0
    3.3954    3.0976    0.0000 C   0  0  0  0  0  0  0  0  0  0  0  0
    2.0371    3.5416    0.0000 C   0  0  0  0  0  0  0  0  0  0  0  0
    3.6517    3.8818    0.0000 C   0  0  0  0  0  0  0  0  0  0  0  0
    2.2935    4.3257    0.0000 C   0  0  0  0  0  0  0  0  0  0  0  0
    3.1007    4.4959    0.0000 C   0  0  0  0  0  0  0  0  0  0  0  0
    2.3318    2.1433    0.0000 C   0  0  0  0  0  0  0  0  0  0  0  0
    2.8828    1.5293    0.0000 C   0  0  0  0  0  0  0  0  0  0  0  0
    3.1775    0.1309    0.0000 C   0  0  0  0  0  0  0  0  0  0  0  0
    4.5741   -2.4954    0.0000 C   0  0  0  0  0  0  0  0  0  0  0  0
    3.7935   -2.7468    0.0000 C   0  0  0  0  0  0  0  0  0  0  0  0
    5.0556   -3.1593    0.0000 C   0  0  0  0  0  0  0  0  0  0  0  0
    3.7935   -3.5718    0.0000 C   0  0  0  0  0  0  0  0  0  0  0  0
    4.2795   -1.0972    0.0000 C   0  0  0  0  0  0  0  0  0  0  0  0
    4.8305   -1.7113    0.0000 C   0  0  0  0  0  0  0  0  0  0  0  0
    2.9212   -0.6532    0.0000 C   0  0  0  0  0  0  0  0  0  0  0  0
    3.9848    0.3011    0.0000 C   0  0  0  0  0  0  0  0  0  0  0  0
    3.4722   -1.2673    0.0000 C   0  0  0  0  0  0  0  0  0  0  0  0
    4.5358   -0.3129    0.0000 C   0  0  0  0  0  0  0  0  0  0  0  0
    5.8806   -3.1593    0.0000 C   0  0  0  0  0  0  0  0  0  0  0  0
    3.0791   -2.3343    0.0000 C   0  0  0  0  0  0  0  0  0  0  0  0
    3.0791   -3.9843    0.0000 C   0  0  0  0  0  0  0  0  0  0  0  0
    2.3645   -2.7468    0.0000 C   0  0  0  0  0  0  0  0  0  0  0  0
    2.3645   -3.5718    0.0000 C   0  0  0  0  0  0  0  0  0  0  0  0
    6.2932   -2.4449    0.0000 C   0  0  0  0  0  0  0  0  0  0  0  0
    6.2932   -3.8738    0.0000 C   0  0  0  0  0  0  0  0  0  0  0  0
    7.1182   -2.4449    0.0000 C   0  0  0  0  0  0  0  0  0  0  0  0
    7.1182   -3.8738    0.0000 C   0  0  0  0  0  0  0  0  0  0  0  0
    7.5307   -3.1593    0.0000 C   0  0  0  0  0  0  0  0  0  0  0  0
  1 17  1  0
  1 18  1  0
  2 13  1  0
  2 14  1  0
  3 20  2  0
  4 29  1  0
  5 34  1  0
  6  7  1  0
  6  8  1  0
  6 12  1  0
  7  9  1  0
  8 10  1  0
  9 11  1  0
 10 11  1  0
 12 13  1  0
 14 21  2  0
 14 22  1  0
 15 16  1  0
 15 17  2  0
 15 20  1  0
 16 18  2  0
 16 26  1  0
 17 25  1  0
 18 27  1  0
 19 20  1  0
 19 23  2  0
 19 24  1  0
 21 23  1  0
 22 24  2  0
 25 30  2  0
 25 31  1  0
 26 28  2  0
 27 29  2  0
 28 29  1  0
 30 32  1  0
 31 33  2  0
 32 34  2  0
 33 34  1  0
M  END
$$$$
