299
     RDKit          2D

 18 19  0  0  0  0  0  0  0  0999 V2000
    6.0424    2.5350    0.0000 O   0  0  0  0  0  0  0  0  0  0  0  0
    7.4006    2.0911    0.0000 O   0  0  0  0  0  0  0  0  0  0  0  0
    3.5220   -2.9157    0.0000 O   0  0  0  0  0  0  0  0  0  0  0  0
    5.0171   -0.6018    0.0000 N   0  0  0  0  0  0  0  0  0  0  0  0
    3.5220   -0.4406    0.0000 N   0  0  0  0  0  0  0  0  0  0  0  0
    5.0171   -1.9296    0.0000 N   0  0  0  0  0  0  0  0  0  0  0  0
    2.8075   -1.6782    0.0000 N   0  0  0  0  0  0  0  0  0  0  0  0
    2.0930   -0.4406    0.0000 N   0  0  0  0  0  0  0  0  0  0  0  0
    6.3370    1.1368    0.0000 C   0  0  0  0  0  0  0  0  0  0  0  0
    6.0807    0.3525    0.0000 C   0  0  0  0  0  0  0  0  0  0  0  0
    5.2734    0.1824    0.0000 C   0  0  0  0  0  0  0  0  0  0  0  0
    5.7860    1.7509    0.0000 C   0  0  0  0  0  0  0  0  0  0  0  0
    7.1443    1.3069    0.0000 C   0  0  0  0  0  0  0  0  0  0  0  0
    4.2365   -0.8532    0.0000 C   0  0  0  0  0  0  0  0  0  0  0  0
    4.2365   -1.6782    0.0000 C   0  0  0  0  0  0  0  0  0  0  0  0
    5.4986   -1.2657    0.0000 C   0  0  0  0  0  0  0  0  0  0  0  0
    3.5220   -2.0907    0.0000 C   0  0  0  0  0  0  0  0  0  0  0  0
    2.8075   -0.8532    0.0000 C   0  0  0  0  0  0  0  0  0  0  0  0
  1 12  1  0
  2 13  1  0
  3 17  2  0
  4 11  1  0
  4 14  1  0
  4 16  1  0
  5 14  1  0
  5 18  1  0
  6 15  1  0
  6 16  2  0
  7 17  1  0
  7 18  2  0
  8 18  1  0
  9 10  1  0
  9 12  1  0
  9 13  1  0
 10 11  1  0
 14 15  2  0
 15 17  1  0
M  END
$$$$
