704
     RDKit          2D

 25 30  0  0  1  0  0  0  0  0999 V2000
    1.9356   -0.2231    0.0000 O   0  0  0  0  0  0  0  0  0  0  0  0
    4.4727   -1.7584    0.0000 O   0  0  0  0  0  0  0  0  0  0  0  0
    1.7349   -2.3527    0.0000 O   0  0  0  0  0  0  0  0  0  0  0  0
    1.7349    1.8149    0.0000 O   0  0  0  0  0  0  0  0  0  0  0  0
    5.3440   -1.0939    0.0000 N   0  0  0  0  0  0  0  0  0  0  0  0
    3.2006   -0.6814    0.0000 C   0  0  0  0  0  0  0  0  0  0  0  0
    3.9151   -1.0939    0.0000 C   0  0  0  0  0  0  0  0  0  0  0  0
    4.6296   -0.6814    0.0000 C   0  0  0  0  0  0  0  0  0  0  0  0
    2.4861   -1.0939    0.0000 C   0  0  0  0  0  0  0  0  0  0  0  0
    3.6773   -0.0764    0.0000 C   0  0  0  0  0  0  0  0  0  0  0  0
    3.2006    0.1436    0.0000 C   0  0  0  0  0  0  0  0  0  0  0  0
    3.9151   -1.9190    0.0000 C   0  0  0  0  0  0  0  0  0  0  0  0
    4.8506   -0.0764    0.0000 C   0  0  0  0  0  0  0  0  0  0  0  0
    4.6296    0.1436    0.0000 C   0  0  0  0  0  0  0  0  0  0  0  0
    3.9151    0.5561    0.0000 C   0  0  0  0  0  0  0  0  0  0  0  0
    5.9350   -1.7290    0.0000 C   0  0  0  0  0  0  0  0  0  0  0  0
    3.2006   -2.3315    0.0000 C   0  0  0  0  0  0  0  0  0  0  0  0
    6.7804   -1.5349    0.0000 C   0  0  0  0  0  0  0  0  0  0  0  0
    2.4861   -1.9190    0.0000 C   0  0  0  0  0  0  0  0  0  0  0  0
    2.4861    0.5561    0.0000 C   0  0  0  0  0  0  0  0  0  0  0  0
    7.6097   -1.7894    0.0000 C   0  0  0  0  0  0  0  0  0  0  0  0
    7.4155   -0.9440    0.0000 C   0  0  0  0  0  0  0  0  0  0  0  0
    3.9151    1.3811    0.0000 C   0  0  0  0  0  0  0  0  0  0  0  0
    2.4861    1.3811    0.0000 C   0  0  0  0  0  0  0  0  0  0  0  0
    3.2006    1.7936    0.0000 C   0  0  0  0  0  0  0  0  0  0  0  0
  9  1  1  6
  1 20  1  0
  7  2  1  1
  3 19  2  0
  4 24  1  0
  5  8  1  0
  5 13  1  0
  5 16  1  0
  6  7  1  0
  6  9  1  0
  6 10  1  1
  6 11  1  0
  7  8  1  0
  7 12  1  0
  8 14  1  1
  9 19  1  0
 10 13  1  0
 11 15  2  0
 11 20  1  0
 12 17  1  0
 14 15  1  0
 15 23  1  0
 16 18  1  0
 17 19  1  0
 18 21  1  0
 18 22  1  0
 20 24  2  0
 21 22  1  0
 23 25  2  0
 24 25  1  0
M  END
$$$$
