670
     RDKit          2D

 26 29  0  0  0  0  0  0  0  0999 V2000
    4.7423   -0.2440    0.0000 O   0  0  0  0  0  0  0  0  0  0  0  0
    3.2576    3.5435    0.0000 O   0  0  0  0  0  0  0  0  0  0  0  0
    3.3135   -1.0689    0.0000 N   0  0  0  0  0  0  0  0  0  0  0  0
    3.3135   -2.7186    0.0000 N   0  0  0  0  0  0  0  0  0  0  0  0
    4.0280    0.9934    0.0000 N   0  0  0  0  0  0  0  0  0  0  0  0
    4.4404    2.8003    0.0000 N   0  0  0  0  0  0  0  0  0  0  0  0
    5.3919    0.7572    0.0000 N   0  0  0  0  0  0  0  0  0  0  0  0
    2.5991   -1.4813    0.0000 C   0  0  0  0  0  0  0  0  0  0  0  0
    4.0280   -1.4813    0.0000 C   0  0  0  0  0  0  0  0  0  0  0  0
    2.5991   -2.3062    0.0000 C   0  0  0  0  0  0  0  0  0  0  0  0
    4.0280   -2.3062    0.0000 C   0  0  0  0  0  0  0  0  0  0  0  0
    3.3136   -0.2440    0.0000 C   0  0  0  0  0  0  0  0  0  0  0  0
    3.3135   -3.5435    0.0000 C   0  0  0  0  0  0  0  0  0  0  0  0
    4.0280    0.1685    0.0000 C   0  0  0  0  0  0  0  0  0  0  0  0
    3.2848    1.3512    0.0000 C   0  0  0  0  0  0  0  0  0  0  0  0
    4.7712    1.3512    0.0000 C   0  0  0  0  0  0  0  0  0  0  0  0
    3.1012    2.1554    0.0000 C   0  0  0  0  0  0  0  0  0  0  0  0
    4.9547    2.1554    0.0000 C   0  0  0  0  0  0  0  0  0  0  0  0
    2.6639    0.7572    0.0000 C   0  0  0  0  0  0  0  0  0  0  0  0
    3.6155    2.8003    0.0000 C   0  0  0  0  0  0  0  0  0  0  0  0
    2.2841    2.4214    0.0000 C   0  0  0  0  0  0  0  0  0  0  0  0
    5.7717    2.4213    0.0000 C   0  0  0  0  0  0  0  0  0  0  0  0
    1.8410    1.0042    0.0000 C   0  0  0  0  0  0  0  0  0  0  0  0
    1.6498    1.8419    0.0000 C   0  0  0  0  0  0  0  0  0  0  0  0
    6.4061    1.8418    0.0000 C   0  0  0  0  0  0  0  0  0  0  0  0
    6.2149    1.0041    0.0000 C   0  0  0  0  0  0  0  0  0  0  0  0
  1 14  2  0
  2 20  2  0
  3  8  1  0
  3  9  1  0
  3 12  1  0
  4 10  1  0
  4 11  1  0
  4 13  1  0
  5 14  1  0
  5 15  1  0
  5 16  1  0
  6 18  1  0
  6 20  1  0
  7 16  1  0
  7 26  2  0
  8 10  1  0
  9 11  1  0
 12 14  1  0
 15 17  2  0
 15 19  1  0
 16 18  2  0
 17 20  1  0
 17 21  1  0
 18 22  1  0
 19 23  2  0
 21 24  2  0
 22 25  2  0
 23 24  1  0
 25 26  1  0
M  END
$$$$
