187
     RDKit          2D

 21 21  0  0  1  0  0  0  0  0999 V2000
    3.0790    1.0313    0.0000 O   0  0  0  0  0  0  0  0  0  0  0  0
    3.0790    2.6812    0.0000 O   0  0  0  0  0  0  0  0  0  0  0  0
    1.6500   -3.9188    0.0000 O   0  0  0  0  0  0  0  0  0  0  0  0
    3.0790   -3.9188    0.0000 O   0  0  0  0  0  0  0  0  0  0  0  0
    4.5079    3.5062    0.0000 N   0  0  0  0  0  0  0  0  0  0  0  0
    3.7934    2.2688    0.0000 C   0  0  0  0  0  0  0  0  0  0  0  0
    4.5079    2.6812    0.0000 C   0  0  0  0  0  0  0  0  0  0  0  0
    5.2223    3.9188    0.0000 C   0  0  0  0  0  0  0  0  0  0  0  0
    3.7934    1.4438    0.0000 C   0  0  0  0  0  0  0  0  0  0  0  0
    5.2223    4.7438    0.0000 C   0  0  0  0  0  0  0  0  0  0  0  0
    5.9369    3.5062    0.0000 C   0  0  0  0  0  0  0  0  0  0  0  0
    3.0790   -1.4438    0.0000 C   0  0  0  0  0  0  0  0  0  0  0  0
    3.0790   -2.2688    0.0000 C   0  0  0  0  0  0  0  0  0  0  0  0
    3.0790    0.2063    0.0000 C   0  0  0  0  0  0  0  0  0  0  0  0
    2.3644   -1.0313    0.0000 C   0  0  0  0  0  0  0  0  0  0  0  0
    3.7934   -1.0313    0.0000 C   0  0  0  0  0  0  0  0  0  0  0  0
    2.3644   -0.2063    0.0000 C   0  0  0  0  0  0  0  0  0  0  0  0
    3.7934   -0.2063    0.0000 C   0  0  0  0  0  0  0  0  0  0  0  0
    2.3644   -2.6812    0.0000 C   0  0  0  0  0  0  0  0  0  0  0  0
    2.3644   -3.5062    0.0000 C   0  0  0  0  0  0  0  0  0  0  0  0
    1.6500   -4.7438    0.0000 C   0  0  0  0  0  0  0  0  0  0  0  0
  1  9  1  0
  1 14  1  0
  2  6  1  0
  3 20  1  0
  3 21  1  0
  4 20  2  0
  5  7  1  0
  5  8  1  0
  6  7  1  0
  6  9  1  0
  8 10  1  0
  8 11  1  0
 12 13  1  0
 12 15  2  0
 12 16  1  0
 13 19  1  0
 14 17  2  0
 14 18  1  0
 15 17  1  0
 16 18  2  0
 19 20  1  0
M  END
$$$$
