
     RDKit          2D

 92103  0  0  0  0  0  0  0  0999 V2000
   -1.0291    0.5487    0.0000 C   0  0  0  0  0  0  0  0  0  0  0  0
   -1.1410    1.3522    0.0000 N   0  0  0  0  0  0  0  0  0  0  0  0
   -1.1410    3.0503    0.0000 N   0  0  0  0  0  0  0  0  0  0  0  0
   -1.0291    3.8539    0.0000 C   0  0  0  0  0  0  0  0  0  0  0  0
   -1.7415    4.2306    0.0000 C   0  0  0  0  0  0  0  0  0  0  0  0
   -1.8599    5.0471    0.0000 C   0  0  0  0  0  0  0  0  0  0  0  0
   -1.2121    5.5580    0.0000 C   0  0  0  0  0  0  0  0  0  0  0  0
   -1.3306    6.3744    0.0000 C   0  0  0  0  0  0  0  0  0  0  0  0
   -2.0968    6.6799    0.0000 O   0  0  0  0  0  0  0  0  0  0  0  0
    0.4120    3.8539    0.0000 C   0  0  0  0  0  0  0  0  0  0  0  0
    0.5363    3.0503    0.0000 N   0  0  0  0  0  0  0  0  0  0  0  0
    1.3605    2.9012    0.0000 C   0  0  0  0  0  0  0  0  0  0  0  0
    1.7746    2.2012    0.0000 C   0  0  0  0  0  0  0  0  0  0  0  0
    1.3605    1.4971    0.0000 C   0  0  0  0  0  0  0  0  0  0  0  0
    0.5363    1.3522    0.0000 N   0  0  0  0  0  0  0  0  0  0  0  0
    0.4120    0.5487    0.0000 C   0  0  0  0  0  0  0  0  0  0  0  0
    1.1493    0.1677    0.0000 C   0  0  0  0  0  0  0  0  0  0  0  0
    1.2716   -0.6481    0.0000 C   0  0  0  0  0  0  0  0  0  0  0  0
    2.0394   -0.9500    0.0000 C   0  0  0  0  0  0  0  0  0  0  0  0
    2.1618   -1.7659    0.0000 C   0  0  0  0  0  0  0  0  0  0  0  0
    2.9294   -2.0679    0.0000 O   0  0  0  0  0  0  0  0  0  0  0  0
    1.7415    0.7475    0.0000 C   0  0  0  0  0  0  0  0  0  0  0  0
    2.3797    0.2246    0.0000 C   0  0  0  0  0  0  0  0  0  0  0  0
    2.5134    1.0387    0.0000 C   0  0  0  0  0  0  0  0  0  0  0  0
   -0.2919    4.2637    0.0000 C   0  0  0  0  0  0  0  0  0  0  0  0
   -0.2919    5.0887    0.0000 C   0  0  0  0  0  0  0  0  0  0  0  0
   -0.2919    0.1345    0.0000 C   0  0  0  0  0  0  0  0  0  0  0  0
   -0.2919   -0.6904    0.0000 C   0  0  0  0  0  0  0  0  0  0  0  0
   -1.9527    1.4971    0.0000 C   0  0  0  0  0  0  0  0  0  0  0  0
   -1.9527    2.9260    0.0000 C   0  0  0  0  0  0  0  0  0  0  0  0
   -2.7496    2.7125    0.0000 C   0  0  0  0  0  0  0  0  0  0  0  0
   -2.4560   -1.0697    0.0000 C   0  0  0  0  0  0  0  0  0  0  0  0
   -3.1704   -1.4822    0.0000 C   0  0  0  0  0  0  0  0  0  0  0  0
   -3.8849   -1.0697    0.0000 O   0  0  0  0  0  0  0  0  0  0  0  0
   -3.1704   -2.3072    0.0000 N   0  0  0  0  0  0  0  0  0  0  0  0
   -3.8849   -2.7197    0.0000 C   0  0  0  0  0  0  0  0  0  0  0  0
   -3.8849   -3.5447    0.0000 C   0  0  0  0  0  0  0  0  0  0  0  0
   -2.4560   -0.2447    0.0000 C   0  0  0  0  0  0  0  0  0  0  0  0
   -1.7415    0.1677    0.0000 C   0  0  0  0  0  0  0  0  0  0  0  0
   -1.7415   -0.6572    0.0000 C   0  0  0  0  0  0  0  0  0  0  0  0
   -0.6827    6.8851    0.0000 N   0  0  0  0  0  0  0  0  0  0  0  0
    1.5163   -2.2798    0.0000 N   0  0  0  0  0  0  0  0  0  0  0  0
    2.1181   -3.5722    0.0000 C   0  0  0  0  0  0  0  0  0  0  0  0
    1.2931   -5.0011    0.0000 C   0  0  0  0  0  0  0  0  0  0  0  0
    1.2931   -3.5722    0.0000 C   0  0  0  0  0  0  0  0  0  0  0  0
   -0.0125   -3.2947    0.0000 C   0  0  0  0  0  0  0  0  0  0  0  0
    0.8806   -4.2867    0.0000 C   0  0  0  0  0  0  0  0  0  0  0  0
    0.7412   -2.9591    0.0000 N   0  0  0  0  0  0  0  0  0  0  0  0
    0.0736   -4.1151    0.0000 N   0  0  0  0  0  0  0  0  0  0  0  0
    2.5306   -4.2867    0.0000 C   0  0  0  0  0  0  0  0  0  0  0  0
    3.3556   -4.2867    0.0000 C   0  0  0  0  0  0  0  0  0  0  0  0
    2.1181   -5.0011    0.0000 C   0  0  0  0  0  0  0  0  0  0  0  0
    2.5306   -5.7156    0.0000 C   0  0  0  0  0  0  0  0  0  0  0  0
   -0.5394   -4.6672    0.0000 C   0  0  0  0  0  0  0  0  0  0  0  0
   -0.4531   -5.4878    0.0000 O   0  0  0  0  0  0  0  0  0  0  0  0
   -1.2068   -5.8232    0.0000 C   0  0  0  0  0  0  0  0  0  0  0  0
   -1.3783   -6.6302    0.0000 C   0  0  0  0  0  0  0  0  0  0  0  0
   -2.1630   -6.8851    0.0000 O   0  0  0  0  0  0  0  0  0  0  0  0
   -1.3464   -4.4956    0.0000 C   0  0  0  0  0  0  0  0  0  0  0  0
   -1.6819   -3.7420    0.0000 O   0  0  0  0  0  0  0  0  0  0  0  0
   -1.7589   -5.2101    0.0000 C   0  0  0  0  0  0  0  0  0  0  0  0
   -2.5793   -5.2964    0.0000 O   0  0  0  0  0  0  0  0  0  0  0  0
   -0.3218    2.2508    0.0000 Co  0  0  0  0  0  6  0  0  0  0  0  0
   -0.8143    5.0655    0.0000 O   0  0  0  0  0  0  0  0  0  0  0  0
    1.7415    3.6508    0.0000 C   0  0  0  0  0  0  0  0  0  0  0  0
    2.4560    4.0633    0.0000 C   0  0  0  0  0  0  0  0  0  0  0  0
    3.1705    3.6507    0.0000 C   0  0  0  0  0  0  0  0  0  0  0  0
    3.8850    4.0632    0.0000 C   0  0  0  0  0  0  0  0  0  0  0  0
    3.8850    4.8881    0.0000 O   0  0  0  0  0  0  0  0  0  0  0  0
    4.5994    3.6505    0.0000 N   0  0  0  0  0  0  0  0  0  0  0  0
   -2.3337    0.7475    0.0000 C   0  0  0  0  0  0  0  0  0  0  0  0
   -3.0482    0.3350    0.0000 C   0  0  0  0  0  0  0  0  0  0  0  0
   -3.7627    0.7475    0.0000 C   0  0  0  0  0  0  0  0  0  0  0  0
   -3.7627    1.5724    0.0000 O   0  0  0  0  0  0  0  0  0  0  0  0
   -4.4771    0.3348    0.0000 N   0  0  0  0  0  0  0  0  0  0  0  0
   -2.3337    3.6508    0.0000 C   0  0  0  0  0  0  0  0  0  0  0  0
   -3.0482    3.2384    0.0000 C   0  0  0  0  0  0  0  0  0  0  0  0
   -3.7627    3.6509    0.0000 C   0  0  0  0  0  0  0  0  0  0  0  0
   -4.4772    3.2385    0.0000 N   0  0  0  0  0  0  0  0  0  0  0  0
   -3.7627    4.4759    0.0000 O   0  0  0  0  0  0  0  0  0  0  0  0
   -2.9172    4.2342    0.0000 C   0  0  0  0  0  0  0  0  0  0  0  0
    1.1493    4.2306    0.0000 C   0  0  0  0  0  0  0  0  0  0  0  0
    1.8638    4.6431    0.0000 C   0  0  0  0  0  0  0  0  0  0  0  0
    1.1493    5.0556    0.0000 C   0  0  0  0  0  0  0  0  0  0  0  0
    1.8638    5.4681    0.0000 C   0  0  0  0  0  0  0  0  0  0  0  0
    1.8639    6.2931    0.0000 O   0  0  0  0  0  0  0  0  0  0  0  0
    2.5782    5.0556    0.0000 N   0  0  0  0  0  0  0  0  0  0  0  0
   -3.1627   -4.7130    0.0000 P   0  0  0  0  0  0  0  0  0  0  0  0
   -3.1627   -3.8880    0.0000 O   0  0  0  0  0  0  0  0  0  0  0  0
   -3.5752   -5.4275    0.0000 O   0  0  0  0  0  0  0  0  0  0  0  0
   -4.5994   -3.9572    0.0000 C   0  0  0  0  0  0  0  0  0  0  0  0
   -3.9596   -4.9265    0.0000 O   0  0  0  0  0  0  0  0  0  0  0  0
 27  1  2  0
  1  2  1  0
 39  1  1  0
 29  2  1  6
  2 63  1  0
 29 71  1  0
 29 30  1  0
 71 39  1  0
 30  3  1  0
 30 76  1  0
  3  4  2  0
  5  4  1  0
  4 25  1  0
  5  6  1  6
 76  5  1  0
  6  7  1  0
  7  8  1  0
  8 41  1  0
  8  9  2  0
 25 10  2  0
 10 11  1  0
 10 82  1  0
 11 12  2  0
 12 13  1  0
 12 65  1  0
 13 14  2  0
 14 15  1  0
 14 22  1  0
 15 16  2  0
 16 17  1  0
 17 18  1  6
 17 22  1  0
 18 19  1  0
 19 20  1  0
 20 42  1  0
 20 21  2  0
 22 23  1  0
 22 24  1  0
 65 82  1  0
 11 63  1  0
  3 63  1  0
 15 63  1  0
 25 26  1  0
 27 28  1  0
 30 31  1  6
 38 32  1  0
 32 33  1  0
 33 35  1  0
 33 34  2  0
 36 35  1  0
 37 36  1  0
 39 38  1  0
 39 40  1  1
 27 16  1  0
 43 45  2  0
 43 50  1  0
 47 44  2  0
 44 52  1  0
 45 48  1  0
 45 47  1  0
 46 49  1  0
 46 48  2  0
 49 47  1  0
 54 49  1  0
 52 50  2  0
 50 51  1  0
 52 53  1  0
 54 59  1  0
 54 55  1  1
 56 55  1  0
 61 56  1  0
 56 57  1  6
 57 58  1  0
 59 61  1  0
 59 60  1  1
 61 62  1  1
 63 64  1  0
 65 66  1  6
 66 67  1  0
 67 68  1  0
 68 70  1  0
 68 69  2  0
 71 72  1  1
 72 73  1  0
 73 75  1  0
 73 74  2  0
 76 77  1  0
 77 78  1  0
 78 80  2  0
 78 79  1  0
 76 81  1  6
 82 83  1  6
 82 84  1  0
 84 85  1  0
 85 87  1  0
 85 86  2  0
 62 88  1  0
 88 89  1  0
 88 90  2  0
 37 89  1  0
 37 91  1  6
 88 92  1  0
 48 63  1  0
M  CHG  6   3   1  11   1  15   1  48   1  63  -3  92  -1
M  END
$$$$
