65028
     RDKit          2D

 22 22  0  0  1  0  0  0  0  0999 V2000
    3.7935    1.0313    0.0000 O   0  0  0  0  0  0  0  0  0  0  0  0
    4.5080   -1.8563    0.0000 O   0  0  0  0  0  0  0  0  0  0  0  0
    5.9370   -1.8563    0.0000 O   0  0  0  0  0  0  0  0  0  0  0  0
    3.7935    1.8563    0.0000 O   0  0  0  0  0  0  0  0  0  0  0  0
    5.2224    1.8563    0.0000 N   0  0  0  0  0  0  0  0  0  0  0  0
    6.6515    1.0313    0.0000 N   0  0  0  0  0  0  0  0  0  0  0  0
    5.2224    1.0313    0.0000 C   0  0  0  0  0  0  0  0  0  0  0  0
    5.9370    0.6188    0.0000 C   0  0  0  0  0  0  0  0  0  0  0  0
    4.5080    0.6188    0.0000 C   0  0  0  0  0  0  0  0  0  0  0  0
    5.9370   -0.2063    0.0000 C   0  0  0  0  0  0  0  0  0  0  0  0
    4.5080   -0.2063    0.0000 C   0  0  0  0  0  0  0  0  0  0  0  0
    5.2224   -0.6188    0.0000 C   0  0  0  0  0  0  0  0  0  0  0  0
    3.0790    0.6188    0.0000 C   0  0  0  0  0  0  0  0  0  0  0  0
    2.3645    1.0313    0.0000 C   0  0  0  0  0  0  0  0  0  0  0  0
    3.0790   -0.2063    0.0000 C   0  0  0  0  0  0  0  0  0  0  0  0
    5.2224   -1.4438    0.0000 C   0  0  0  0  0  0  0  0  0  0  0  0
    4.5080    2.2688    0.0000 C   0  0  0  0  0  0  0  0  0  0  0  0
    1.6500    0.6188    0.0000 C   0  0  0  0  0  0  0  0  0  0  0  0
    2.3645   -0.6188    0.0000 C   0  0  0  0  0  0  0  0  0  0  0  0
    4.5080    3.0938    0.0000 C   0  0  0  0  0  0  0  0  0  0  0  0
    4.5080   -2.6813    0.0000 C   0  0  0  0  0  0  0  0  0  0  0  0
    3.7935   -3.0938    0.0000 C   0  0  0  0  0  0  0  0  0  0  0  0
  9  1  1  1
  1 13  1  0
  2 16  1  0
  2 21  1  0
  3 16  2  0
  4 17  2  0
  7  5  1  6
  5 17  1  0
  8  6  1  1
  7  8  1  0
  7  9  1  0
  8 10  1  0
  9 11  1  0
 10 12  1  0
 11 12  2  0
 12 16  1  0
 13 14  1  0
 13 15  1  0
 14 18  1  0
 15 19  1  0
 17 20  1  0
 21 22  1  0
M  END
$$$$
