846
     RDKit          2D

 31 35  0  0  1  0  0  0  0  0999 V2000
    2.4287   -0.6672    0.0000 F   0  0  0  0  0  0  0  0  0  0  0  0
    7.4742   -0.8731    0.0000 O   0  0  0  0  0  0  0  0  0  0  0  0
    6.9362   -2.0785    0.0000 O   0  0  0  0  0  0  0  0  0  0  0  0
    5.3411    1.8278    0.0000 O   0  0  0  0  0  0  0  0  0  0  0  0
    7.2460    0.5198    0.0000 O   0  0  0  0  0  0  0  0  0  0  0  0
    8.7528   -0.1526    0.0000 O   0  0  0  0  0  0  0  0  0  0  0  0
    1.6500    2.3594    0.0000 O   0  0  0  0  0  0  0  0  0  0  0  0
    6.0555   -0.2347    0.0000 C   0  0  0  0  0  0  0  0  0  0  0  0
    5.3411   -0.6472    0.0000 C   0  0  0  0  0  0  0  0  0  0  0  0
    4.6266   -0.2347    0.0000 C   0  0  0  0  0  0  0  0  0  0  0  0
    6.6637   -0.7851    0.0000 C   0  0  0  0  0  0  0  0  0  0  0  0
    4.6266    0.5903    0.0000 C   0  0  0  0  0  0  0  0  0  0  0  0
    5.5137   -1.4491    0.0000 C   0  0  0  0  0  0  0  0  0  0  0  0
    6.3294   -1.5340    0.0000 C   0  0  0  0  0  0  0  0  0  0  0  0
    6.0555    0.5903    0.0000 C   0  0  0  0  0  0  0  0  0  0  0  0
    5.3411    1.0028    0.0000 C   0  0  0  0  0  0  0  0  0  0  0  0
    3.8890    1.0314    0.0000 C   0  0  0  0  0  0  0  0  0  0  0  0
    3.8890   -0.6759    0.0000 C   0  0  0  0  0  0  0  0  0  0  0  0
    6.7701    0.1778    0.0000 C   0  0  0  0  0  0  0  0  0  0  0  0
    3.1416    0.6075    0.0000 C   0  0  0  0  0  0  0  0  0  0  0  0
    3.1416   -0.2520    0.0000 C   0  0  0  0  0  0  0  0  0  0  0  0
    7.3315   -0.3007    0.0000 C   0  0  0  0  0  0  0  0  0  0  0  0
    7.6423   -1.6709    0.0000 C   0  0  0  0  0  0  0  0  0  0  0  0
    3.9098    1.9262    0.0000 C   0  0  0  0  0  0  0  0  0  0  0  0
    4.6067    1.4383    0.0000 C   0  0  0  0  0  0  0  0  0  0  0  0
    3.1416    2.3857    0.0000 C   0  0  0  0  0  0  0  0  0  0  0  0
    2.3629    1.0490    0.0000 C   0  0  0  0  0  0  0  0  0  0  0  0
    8.0849   -0.6370    0.0000 C   0  0  0  0  0  0  0  0  0  0  0  0
    8.0541   -2.3857    0.0000 C   0  0  0  0  0  0  0  0  0  0  0  0
    8.4494   -1.5000    0.0000 C   0  0  0  0  0  0  0  0  0  0  0  0
    2.3629    1.9442    0.0000 C   0  0  0  0  0  0  0  0  0  0  0  0
 21  1  1  6
  2 11  1  0
  2 23  1  0
  3 14  1  0
  3 23  1  0
 16  4  1  1
  5 22  2  0
  6 28  1  0
  7 31  2  0
  8  9  1  0
  8 11  1  0
  8 15  1  0
  8 19  1  1
  9 10  1  0
  9 13  1  1
 10 12  1  0
 10 18  1  6
 11 14  1  0
 11 22  1  1
 12 16  1  1
 12 17  1  0
 14 13  1  6
 15 16  1  0
 17 20  1  0
 17 24  1  0
 17 25  1  1
 18 21  1  0
 20 21  1  0
 20 27  2  0
 22 28  1  0
 23 29  1  0
 23 30  1  0
 24 26  1  0
 26 31  1  0
 27 31  1  0
M  END
$$$$
