
     RDKit          2D

 11 10  0  0  0  0  0  0  0  0999 V2000
    1.6500    0.0000    0.0000 F   0  0  0  0  0  0  0  0  0  0  0  0
    0.8250    0.0000    0.0000 C   0  0  0  0  0  0  0  0  0  0  0  0
    0.0000    0.0000    0.0000 C   0  0  0  0  0  0  0  0  0  0  0  0
   -0.8250    0.0000    0.0000 C   0  0  0  0  0  0  0  0  0  0  0  0
   -0.8250    0.8250    0.0000 F   0  0  0  0  0  0  0  0  0  0  0  0
   -0.8250   -0.8250    0.0000 F   0  0  0  0  0  0  0  0  0  0  0  0
    0.0000   -0.8250    0.0000 F   0  0  0  0  0  0  0  0  0  0  0  0
    0.8250   -0.8250    0.0000 F   0  0  0  0  0  0  0  0  0  0  0  0
    0.8250    0.8250    0.0000 F   0  0  0  0  0  0  0  0  0  0  0  0
    0.0000    0.8250    0.0000 F   0  0  0  0  0  0  0  0  0  0  0  0
   -1.6500    0.0000    0.0000 F   0  0  0  0  0  0  0  0  0  0  0  0
  4  6  1  0
  1  2  1  0
  3  7  1  0
  3  4  1  0
  2  8  1  0
  2  9  1  0
  4  5  1  0
  3 10  1  0
  2  3  1  0
  4 11  1  0
M  END
$$$$
