
     RDKit          2D

  5  4  0  0  0  0  0  0  0  0999 V2000
    0.5834    0.5834    0.0000 Cl  0  0  0  0  0  0  0  0  0  0  0  0
    0.5834   -0.5834    0.0000 Cl  0  0  0  0  0  0  0  0  0  0  0  0
    0.0000    0.0000    0.0000 Pt  0  0  0  0  0  4  0  0  0  0  0  0
   -0.5834   -0.5834    0.0000 N   0  0  0  0  0  0  0  0  0  0  0  0
   -0.5834    0.5834    0.0000 N   0  0  0  0  0  0  0  0  0  0  0  0
  3  1  1  0
  3  2  1  0
  3  4  1  0
  3  5  1  0
M  END
$$$$
