805
     RDKit          2D

 22 24  0  0  0  0  0  0  0  0999 V2000
    2.3645   -3.3001    0.0000 O   0  0  0  0  0  0  0  0  0  0  0  0
    2.3645   -1.6500    0.0000 N   0  0  0  0  0  0  0  0  0  0  0  0
    3.0791    0.4125    0.0000 N   0  0  0  0  0  0  0  0  0  0  0  0
    4.5080    0.4125    0.0000 N   0  0  0  0  0  0  0  0  0  0  0  0
    5.2224    0.8250    0.0000 N   0  0  0  0  0  0  0  0  0  0  0  0
    1.6500   -2.0625    0.0000 C   0  0  0  0  0  0  0  0  0  0  0  0
    3.0791   -2.0625    0.0000 C   0  0  0  0  0  0  0  0  0  0  0  0
    2.3645   -0.8250    0.0000 C   0  0  0  0  0  0  0  0  0  0  0  0
    1.6500   -2.8876    0.0000 C   0  0  0  0  0  0  0  0  0  0  0  0
    3.0791   -2.8876    0.0000 C   0  0  0  0  0  0  0  0  0  0  0  0
    3.0791   -0.4125    0.0000 C   0  0  0  0  0  0  0  0  0  0  0  0
    3.7935    0.8250    0.0000 C   0  0  0  0  0  0  0  0  0  0  0  0
    3.7935    1.6500    0.0000 C   0  0  0  0  0  0  0  0  0  0  0  0
    4.5080    2.0625    0.0000 C   0  0  0  0  0  0  0  0  0  0  0  0
    5.2224    1.6500    0.0000 C   0  0  0  0  0  0  0  0  0  0  0  0
    3.0791    2.0625    0.0000 C   0  0  0  0  0  0  0  0  0  0  0  0
    5.9370    2.0625    0.0000 C   0  0  0  0  0  0  0  0  0  0  0  0
    5.9370    2.8876    0.0000 C   0  0  0  0  0  0  0  0  0  0  0  0
    6.6515    1.6500    0.0000 C   0  0  0  0  0  0  0  0  0  0  0  0
    6.6515    3.3001    0.0000 C   0  0  0  0  0  0  0  0  0  0  0  0
    7.3659    2.0625    0.0000 C   0  0  0  0  0  0  0  0  0  0  0  0
    7.3659    2.8876    0.0000 C   0  0  0  0  0  0  0  0  0  0  0  0
  1  9  1  0
  1 10  1  0
  2  6  1  0
  2  7  1  0
  2  8  1  0
  3 11  1  0
  3 12  1  0
  4  5  2  0
  4 12  1  0
  5 15  1  0
  6  9  1  0
  7 10  1  0
  8 11  1  0
 12 13  2  0
 13 14  1  0
 13 16  1  0
 14 15  2  0
 15 17  1  0
 17 18  2  0
 17 19  1  0
 18 20  1  0
 19 21  2  0
 20 22  2  0
 21 22  1  0
M  END
$$$$
