[NO NAME]
     RDKit          2D

 34 35  0  0  0  0  0  0  0  0999 V2000
    3.8861    1.4562    0.0000 C   0  0  0  0  0  0  0  0  0  0  0  0
    4.6006    1.8687    0.0000 N   0  0  0  0  0  0  0  0  0  0  0  0
    5.3151    1.4562    0.0000 C   0  0  0  0  0  0  0  0  0  0  0  0
    5.3151    0.6312    0.0000 N   0  0  0  0  0  0  0  0  0  0  0  0
    6.0296    1.8687    0.0000 N   0  0  0  0  0  0  0  0  0  0  0  0
    6.7440    1.4562    0.0000 C   0  0  0  0  0  0  0  0  0  0  0  0
    6.7440    0.6312    0.0000 N   0  0  0  0  0  0  0  0  0  0  0  0
    7.4585    1.8687    0.0000 N   0  0  0  0  0  0  0  0  0  0  0  0
    8.1730    1.4562    0.0000 C   0  0  0  0  0  0  0  0  0  0  0  0
    8.8752    1.8893    0.0000 C   0  0  0  0  0  0  0  0  0  0  0  0
    8.1969    0.6316    0.0000 C   0  0  0  0  0  0  0  0  0  0  0  0
    8.9231    0.2400    0.0000 C   0  0  0  0  0  0  0  0  0  0  0  0
    9.6013    1.4978    0.0000 C   0  0  0  0  0  0  0  0  0  0  0  0
    9.6253    0.6731    0.0000 C   0  0  0  0  0  0  0  0  0  0  0  0
   10.3397    0.2606    0.0000 Cl  0  0  0  0  0  0  0  0  0  0  0  0
    3.8861    0.6312    0.0000 C   0  0  0  0  0  0  0  0  0  0  0  0
    3.1716    0.2187    0.0000 C   0  0  0  0  0  0  0  0  0  0  0  0
    3.1716   -0.6063    0.0000 C   0  0  0  0  0  0  0  0  0  0  0  0
    3.8861   -1.0188    0.0000 C   0  0  0  0  0  0  0  0  0  0  0  0
    3.8861   -1.8438    0.0000 C   0  0  0  0  0  0  0  0  0  0  0  0
    4.6006   -2.2563    0.0000 N   0  0  0  0  0  0  0  0  0  0  0  0
    5.3150   -1.8438    0.0000 C   0  0  0  0  0  0  0  0  0  0  0  0
    5.3150   -1.0188    0.0000 N   0  0  0  0  0  0  0  0  0  0  0  0
    6.0295   -2.2563    0.0000 N   0  0  0  0  0  0  0  0  0  0  0  0
    6.7440   -1.8438    0.0000 C   0  0  0  0  0  0  0  0  0  0  0  0
    6.7440   -1.0188    0.0000 N   0  0  0  0  0  0  0  0  0  0  0  0
    7.4585   -2.2563    0.0000 N   0  0  0  0  0  0  0  0  0  0  0  0
    8.1729   -1.8438    0.0000 C   0  0  0  0  0  0  0  0  0  0  0  0
    8.8874   -0.6063    0.0000 C   0  0  0  0  0  0  0  0  0  0  0  0
    8.1729   -1.0188    0.0000 C   0  0  0  0  0  0  0  0  0  0  0  0
    8.8874   -2.2563    0.0000 C   0  0  0  0  0  0  0  0  0  0  0  0
    9.6019   -1.8438    0.0000 C   0  0  0  0  0  0  0  0  0  0  0  0
    9.6019   -1.0188    0.0000 C   0  0  0  0  0  0  0  0  0  0  0  0
   10.3163   -0.6063    0.0000 Cl  0  0  0  0  0  0  0  0  0  0  0  0
  1  2  1  0
  2  3  1  0
  3  5  1  0
  3  4  2  3
  5  6  1  0
  6  8  1  0
  6  7  2  3
  8  9  1  0
 10  9  2  0
  9 11  1  0
 10 13  1  0
 11 12  2  0
 12 14  1  0
 14 13  2  0
 14 15  1  0
  1 16  1  0
 16 17  1  0
 17 18  1  0
 18 19  1  0
 19 20  1  0
 20 21  1  0
 21 22  1  0
 22 23  2  3
 22 24  1  0
 24 25  1  0
 25 26  2  3
 25 27  1  0
 27 28  1  0
 30 28  1  0
 28 31  2  0
 29 30  2  0
 31 32  1  0
 32 33  2  0
 29 33  1  0
 33 34  1  0
M  END
$$$$
