
     RDKit          2D

 13 12  0  0  0  0  0  0  0  0999 V2000
    4.7299    3.6804    0.0000 N   0  0  0  0  0  0  0  0  0  0  0  0
    6.8734    4.0929    0.0000 N   0  0  0  0  0  0  0  0  0  0  0  0
    2.5864    4.0929    0.0000 N   0  0  0  0  0  0  0  0  0  0  0  0
    9.0168    3.6804    0.0000 N   0  0  0  0  0  0  0  0  0  0  0  0
    0.4430    3.6804    0.0000 N   0  0  0  0  0  0  0  0  0  0  0  0
    5.4444    4.0929    0.0000 C   0  0  0  0  0  0  0  0  0  0  0  0
    4.0154    4.0929    0.0000 C   0  0  0  0  0  0  0  0  0  0  0  0
    6.1588    3.6804    0.0000 C   0  0  0  0  0  0  0  0  0  0  0  0
    3.3009    3.6804    0.0000 C   0  0  0  0  0  0  0  0  0  0  0  0
    7.5879    3.6804    0.0000 C   0  0  0  0  0  0  0  0  0  0  0  0
    1.8720    3.6804    0.0000 C   0  0  0  0  0  0  0  0  0  0  0  0
    8.3023    4.0929    0.0000 C   0  0  0  0  0  0  0  0  0  0  0  0
    1.1575    4.0929    0.0000 C   0  0  0  0  0  0  0  0  0  0  0  0
  1  6  1  0
  1  7  1  0
  2  8  1  0
  2 10  1  0
  3  9  1  0
  3 11  1  0
  4 12  1  0
  5 13  1  0
  6  8  1  0
  7  9  1  0
 10 12  1  0
 11 13  1  0
M  END
$$$$
