980
     RDKit          2D

 19 21  0  0  1  0  0  0  0  0999 V2000
    2.1316    3.1623    0.0000 O   0  0  0  0  0  0  0  0  0  0  0  0
    4.0172   -2.0952    0.0000 O   0  0  0  0  0  0  0  0  0  0  0  0
    2.9536   -1.1408    0.0000 N   0  0  0  0  0  0  0  0  0  0  0  0
    3.7993    0.8714    0.0000 C   0  0  0  0  0  0  0  0  0  0  0  0
    3.6267    1.6732    0.0000 C   0  0  0  0  0  0  0  0  0  0  0  0
    4.6149    0.7865    0.0000 C   0  0  0  0  0  0  0  0  0  0  0  0
    4.9492    1.5354    0.0000 C   0  0  0  0  0  0  0  0  0  0  0  0
    4.3412    2.0857    0.0000 C   0  0  0  0  0  0  0  0  0  0  0  0
    3.2482    0.2574    0.0000 C   0  0  0  0  0  0  0  0  0  0  0  0
    2.9121    2.0857    0.0000 C   0  0  0  0  0  0  0  0  0  0  0  0
    2.1316    1.8343    0.0000 C   0  0  0  0  0  0  0  0  0  0  0  0
    2.9121    2.9107    0.0000 C   0  0  0  0  0  0  0  0  0  0  0  0
    4.3412    2.9107    0.0000 C   0  0  0  0  0  0  0  0  0  0  0  0
    3.5046   -0.5268    0.0000 C   0  0  0  0  0  0  0  0  0  0  0  0
    1.6500    2.4982    0.0000 C   0  0  0  0  0  0  0  0  0  0  0  0
    3.6267    3.3233    0.0000 C   0  0  0  0  0  0  0  0  0  0  0  0
    3.2099   -1.9250    0.0000 C   0  0  0  0  0  0  0  0  0  0  0  0
    2.6589   -2.5390    0.0000 C   0  0  0  0  0  0  0  0  0  0  0  0
    2.9152   -3.3233    0.0000 C   0  0  0  0  0  0  0  0  0  0  0  0
  1 12  1  0
  1 15  1  0
  2 17  2  0
  3 14  1  0
  3 17  1  0
  4  5  1  0
  4  6  1  0
  4  9  1  1
  5  8  2  0
  5 10  1  0
  6  7  1  0
  7  8  1  0
  8 13  1  0
  9 14  1  0
 10 11  1  0
 10 12  2  0
 11 15  1  0
 12 16  1  0
 13 16  2  0
 17 18  1  0
 18 19  1  0
M  END
$$$$
