692
     RDKit          2D

 21 23  0  0  0  0  0  0  0  0999 V2000
    2.0894   -2.2353    0.0000 O   0  0  0  0  0  0  0  0  0  0  0  0
    3.5185    0.2398    0.0000 N   0  0  0  0  0  0  0  0  0  0  0  0
    2.1365    1.9622    0.0000 N   0  0  0  0  0  0  0  0  0  0  0  0
    3.4714    1.9622    0.0000 N   0  0  0  0  0  0  0  0  0  0  0  0
    2.8040    0.6523    0.0000 C   0  0  0  0  0  0  0  0  0  0  0  0
    2.8040    1.4773    0.0000 C   0  0  0  0  0  0  0  0  0  0  0  0
    2.3915    2.7468    0.0000 C   0  0  0  0  0  0  0  0  0  0  0  0
    3.2165    2.7468    0.0000 C   0  0  0  0  0  0  0  0  0  0  0  0
    4.2329    0.6523    0.0000 C   0  0  0  0  0  0  0  0  0  0  0  0
    3.5185   -0.5853    0.0000 C   0  0  0  0  0  0  0  0  0  0  0  0
    4.9474    0.2398    0.0000 C   0  0  0  0  0  0  0  0  0  0  0  0
    4.2329    1.4773    0.0000 C   0  0  0  0  0  0  0  0  0  0  0  0
    2.8040   -0.9978    0.0000 C   0  0  0  0  0  0  0  0  0  0  0  0
    4.2329   -0.9978    0.0000 C   0  0  0  0  0  0  0  0  0  0  0  0
    5.6619    1.4773    0.0000 C   0  0  0  0  0  0  0  0  0  0  0  0
    5.6619    0.6523    0.0000 C   0  0  0  0  0  0  0  0  0  0  0  0
    4.9474    1.8898    0.0000 C   0  0  0  0  0  0  0  0  0  0  0  0
    2.8040   -1.8228    0.0000 C   0  0  0  0  0  0  0  0  0  0  0  0
    4.2329   -1.8228    0.0000 C   0  0  0  0  0  0  0  0  0  0  0  0
    3.5185   -2.2353    0.0000 C   0  0  0  0  0  0  0  0  0  0  0  0
    6.3764    1.8898    0.0000 C   0  0  0  0  0  0  0  0  0  0  0  0
  1 18  1  0
  2  5  1  0
  2  9  1  0
  2 10  1  0
  3  6  1  0
  3  7  1  0
  4  6  2  0
  4  8  1  0
  5  6  1  0
  7  8  1  0
  9 11  2  0
  9 12  1  0
 10 13  2  0
 10 14  1  0
 11 16  1  0
 12 17  2  0
 13 18  1  0
 14 19  2  0
 15 16  2  0
 15 17  1  0
 15 21  1  0
 18 20  2  0
 19 20  1  0
M  END
$$$$
