600
     RDKit          2D

 15 16  0  0  0  0  0  0  0  0999 V2000
    2.3644    0.3341    0.0000 O   0  0  0  0  0  0  0  0  0  0  0  0
    2.3644   -2.9659    0.0000 O   0  0  0  0  0  0  0  0  0  0  0  0
    3.0790    1.5716    0.0000 C   0  0  0  0  0  0  0  0  0  0  0  0
    3.0790    0.7466    0.0000 C   0  0  0  0  0  0  0  0  0  0  0  0
    2.3644   -0.4909    0.0000 C   0  0  0  0  0  0  0  0  0  0  0  0
    2.3644    1.9841    0.0000 C   0  0  0  0  0  0  0  0  0  0  0  0
    3.7934    1.9841    0.0000 C   0  0  0  0  0  0  0  0  0  0  0  0
    1.6500   -0.9034    0.0000 C   0  0  0  0  0  0  0  0  0  0  0  0
    3.0790   -0.9034    0.0000 C   0  0  0  0  0  0  0  0  0  0  0  0
    2.3644    2.8091    0.0000 C   0  0  0  0  0  0  0  0  0  0  0  0
    3.7934    2.8091    0.0000 C   0  0  0  0  0  0  0  0  0  0  0  0
    3.0790    3.2216    0.0000 C   0  0  0  0  0  0  0  0  0  0  0  0
    1.6500   -1.7284    0.0000 C   0  0  0  0  0  0  0  0  0  0  0  0
    3.0790   -1.7284    0.0000 C   0  0  0  0  0  0  0  0  0  0  0  0
    2.3644   -2.1409    0.0000 C   0  0  0  0  0  0  0  0  0  0  0  0
  1  4  1  0
  1  5  1  0
  2 15  1  0
  3  4  1  0
  3  6  2  0
  3  7  1  0
  5  8  2  0
  5  9  1  0
  6 10  1  0
  7 11  2  0
  8 13  1  0
  9 14  2  0
 10 12  2  0
 11 12  1  0
 13 15  2  0
 14 15  1  0
M  END
$$$$
