5212
     RDKit          2D

 33 36  0  0  0  0  0  0  0  0999 V2000
    4.5080   -0.4125    0.0000 S   0  0  0  0  0  0  0  0  0  0  0  0
    4.0955    0.3020    0.0000 O   0  0  0  0  0  0  0  0  0  0  0  0
    4.9205   -1.1270    0.0000 O   0  0  0  0  0  0  0  0  0  0  0  0
    7.3659    1.2375    0.0000 O   0  0  0  0  0  0  0  0  0  0  0  0
    8.0804   -2.4751    0.0000 O   0  0  0  0  0  0  0  0  0  0  0  0
    3.7935   -0.8250    0.0000 N   0  0  0  0  0  0  0  0  0  0  0  0
    2.3645   -1.6500    0.0000 N   0  0  0  0  0  0  0  0  0  0  0  0
    8.0804    0.0000    0.0000 N   0  0  0  0  0  0  0  0  0  0  0  0
    9.5756   -1.4889    0.0000 N   0  0  0  0  0  0  0  0  0  0  0  0
   10.0571   -0.8250    0.0000 N   0  0  0  0  0  0  0  0  0  0  0  0
    7.3659   -1.2375    0.0000 N   0  0  0  0  0  0  0  0  0  0  0  0
    3.0790   -0.4125    0.0000 C   0  0  0  0  0  0  0  0  0  0  0  0
    3.7935   -1.6500    0.0000 C   0  0  0  0  0  0  0  0  0  0  0  0
    2.3645   -0.8250    0.0000 C   0  0  0  0  0  0  0  0  0  0  0  0
    3.0790   -2.0625    0.0000 C   0  0  0  0  0  0  0  0  0  0  0  0
    5.2224    0.0000    0.0000 C   0  0  0  0  0  0  0  0  0  0  0  0
    1.6500   -2.0625    0.0000 C   0  0  0  0  0  0  0  0  0  0  0  0
    5.9370   -0.4125    0.0000 C   0  0  0  0  0  0  0  0  0  0  0  0
    6.6515    0.0000    0.0000 C   0  0  0  0  0  0  0  0  0  0  0  0
    5.2224    0.8250    0.0000 C   0  0  0  0  0  0  0  0  0  0  0  0
    7.3659   -0.4125    0.0000 C   0  0  0  0  0  0  0  0  0  0  0  0
    8.7949   -0.4125    0.0000 C   0  0  0  0  0  0  0  0  0  0  0  0
    6.6515    0.8250    0.0000 C   0  0  0  0  0  0  0  0  0  0  0  0
    5.9370    1.2375    0.0000 C   0  0  0  0  0  0  0  0  0  0  0  0
    9.5756   -0.1611    0.0000 C   0  0  0  0  0  0  0  0  0  0  0  0
    8.7949   -1.2375    0.0000 C   0  0  0  0  0  0  0  0  0  0  0  0
    9.8318    0.6231    0.0000 C   0  0  0  0  0  0  0  0  0  0  0  0
    8.0804   -1.6500    0.0000 C   0  0  0  0  0  0  0  0  0  0  0  0
   10.6391    0.7933    0.0000 C   0  0  0  0  0  0  0  0  0  0  0  0
    9.8318   -2.2732    0.0000 C   0  0  0  0  0  0  0  0  0  0  0  0
   10.8954    1.5774    0.0000 C   0  0  0  0  0  0  0  0  0  0  0  0
    7.3659    2.0625    0.0000 C   0  0  0  0  0  0  0  0  0  0  0  0
    8.0804    2.4751    0.0000 C   0  0  0  0  0  0  0  0  0  0  0  0
  1  2  2  0
  1  3  2  0
  1  6  1  0
  1 16  1  0
  4 23  1  0
  4 32  1  0
  5 28  2  0
  6 12  1  0
  6 13  1  0
  7 14  1  0
  7 15  1  0
  7 17  1  0
  8 21  1  0
  8 22  1  0
  9 10  1  0
  9 26  1  0
  9 30  1  0
 10 25  2  0
 11 21  2  0
 11 28  1  0
 12 14  1  0
 13 15  1  0
 16 18  2  0
 16 20  1  0
 18 19  1  0
 19 21  1  0
 19 23  2  0
 20 24  2  0
 22 25  1  0
 22 26  2  0
 23 24  1  0
 25 27  1  0
 26 28  1  0
 27 29  1  0
 29 31  1  0
 32 33  1  0
M  END
$$$$
