
     RDKit          2D

 15 15  0  0  0  0  0  0  0  0999 V2000
    1.5223    0.1612    0.0000 C   0  0  0  0  0  0  0  0  0  0  0  0
    0.8092    0.5760    0.0000 C   0  0  0  0  0  0  0  0  0  0  0  0
    1.5189   -0.6583    0.0000 C   0  0  0  0  0  0  0  0  0  0  0  0
    2.2355    0.5829    0.0000 C   0  0  0  0  0  0  0  0  0  0  0  0
    0.0961    0.1612    0.0000 C   0  0  0  0  0  0  0  0  0  0  0  0
    2.2355   -1.0663    0.0000 C   0  0  0  0  0  0  0  0  0  0  0  0
    2.9486    0.1680    0.0000 C   0  0  0  0  0  0  0  0  0  0  0  0
   -0.6172    0.5760    0.0000 N   0  0  0  0  0  0  0  0  0  0  0  0
    2.9486   -0.6583    0.0000 C   0  0  0  0  0  0  0  0  0  0  0  0
   -1.3303    0.1612    0.0000 C   0  0  0  0  0  0  0  0  0  0  0  0
   -2.0435    0.5760    0.0000 N   0  0  0  0  0  0  0  0  0  0  0  0
   -1.3303   -0.6617    0.0000 N   0  0  0  0  0  0  0  0  0  0  0  0
   -2.7601    0.1612    0.0000 C   0  0  0  0  0  0  0  0  0  0  0  0
   -3.4732    0.5760    0.0000 N   0  0  0  0  0  0  0  0  0  0  0  0
   -2.7601   -0.6617    0.0000 N   0  0  0  0  0  0  0  0  0  0  0  0
  1  2  1  0
  1  3  2  0
  1  4  1  0
  2  5  1  0
  3  6  1  0
  4  7  2  0
  5  8  1  0
  6  9  2  0
  8 10  1  0
 10 11  1  0
 10 12  2  3
 11 13  1  0
 13 14  1  0
 13 15  2  3
  7  9  1  0
M  END
$$$$
