
     RDKit          2D

 15 14  0  0  0  0  0  0  0  0999 V2000
   12.0947   -1.0312    0.0000 O   0  0  0  0  0  0  0  0  0  0  0  0
   12.8091    1.0312    0.0000 O   0  0  0  0  0  0  0  0  0  0  0  0
   11.3804    1.0312    0.0000 O   0  0  0  0  0  0  0  0  0  0  0  0
   13.5236   -1.0312    0.0000 O   0  0  0  0  0  0  0  0  0  0  0  0
   10.6658   -1.0312    0.0000 O   0  0  0  0  0  0  0  0  0  0  0  0
   14.9524   -0.2063    0.0000 O   0  0  0  0  0  0  0  0  0  0  0  0
    9.2371   -0.2063    0.0000 O   0  0  0  0  0  0  0  0  0  0  0  0
    9.9515    1.0312    0.0000 O   0  0  0  0  0  0  0  0  0  0  0  0
   12.0947   -0.2063    0.0000 C   0  0  0  0  0  0  0  0  0  0  0  0
   12.8091    0.2063    0.0000 C   0  0  0  0  0  0  0  0  0  0  0  0
   11.3804    0.2063    0.0000 C   0  0  0  0  0  0  0  0  0  0  0  0
   13.5236   -0.2063    0.0000 C   0  0  0  0  0  0  0  0  0  0  0  0
   10.6658   -0.2063    0.0000 C   0  0  0  0  0  0  0  0  0  0  0  0
   14.2380    0.2063    0.0000 C   0  0  0  0  0  0  0  0  0  0  0  0
    9.9515    0.2063    0.0000 C   0  0  0  0  0  0  0  0  0  0  0  0
  9  1  1  6
 10  2  1  6
 11  3  1  6
 12  4  1  1
  5 13  1  0
  6 14  1  0
  7 15  1  0
  8 15  2  0
  9 10  1  0
  9 11  1  0
 10 12  1  0
 11 13  1  0
 12 14  1  0
 13 15  1  0
M  CHG  1   7  -1
M  END
$$$$
