887
     RDKit          2D

 25 26  0  0  0  0  0  0  0  0999 V2000
    5.5540    2.2771    0.0000 S   0  0  0  0  0  0  0  0  0  0  0  0
    4.1250    1.4521    0.0000 O   0  0  0  0  0  0  0  0  0  0  0  0
    4.7290    2.2771    0.0000 O   0  0  0  0  0  0  0  0  0  0  0  0
    6.3790    2.2771    0.0000 O   0  0  0  0  0  0  0  0  0  0  0  0
    6.9829   -1.0229    0.0000 O   0  0  0  0  0  0  0  0  0  0  0  0
    7.6973    0.2146    0.0000 O   0  0  0  0  0  0  0  0  0  0  0  0
    4.4269   -0.4999    0.0000 N   0  0  0  0  0  0  0  0  0  0  0  0
    5.5540    3.1021    0.0000 N   0  0  0  0  0  0  0  0  0  0  0  0
    4.8395   -1.2144    0.0000 C   0  0  0  0  0  0  0  0  0  0  0  0
    4.4269   -1.9289    0.0000 C   0  0  0  0  0  0  0  0  0  0  0  0
    4.8395    0.2146    0.0000 C   0  0  0  0  0  0  0  0  0  0  0  0
    4.8395    1.0396    0.0000 C   0  0  0  0  0  0  0  0  0  0  0  0
    5.5540    1.4521    0.0000 C   0  0  0  0  0  0  0  0  0  0  0  0
    4.8395   -2.6433    0.0000 C   0  0  0  0  0  0  0  0  0  0  0  0
    5.5540   -0.1979    0.0000 C   0  0  0  0  0  0  0  0  0  0  0  0
    6.2684    0.2146    0.0000 C   0  0  0  0  0  0  0  0  0  0  0  0
    6.2684    1.0396    0.0000 C   0  0  0  0  0  0  0  0  0  0  0  0
    4.4269   -3.3578    0.0000 C   0  0  0  0  0  0  0  0  0  0  0  0
    3.3000    1.4521    0.0000 C   0  0  0  0  0  0  0  0  0  0  0  0
    6.9829   -0.1979    0.0000 C   0  0  0  0  0  0  0  0  0  0  0  0
    2.8875    0.7375    0.0000 C   0  0  0  0  0  0  0  0  0  0  0  0
    2.8876    2.1666    0.0000 C   0  0  0  0  0  0  0  0  0  0  0  0
    2.0625    0.7375    0.0000 C   0  0  0  0  0  0  0  0  0  0  0  0
    2.0625    2.1666    0.0000 C   0  0  0  0  0  0  0  0  0  0  0  0
    1.6500    1.4521    0.0000 C   0  0  0  0  0  0  0  0  0  0  0  0
  1  3  2  0
  1  4  2  0
  1  8  1  0
  1 13  1  0
  2 12  1  0
  2 19  1  0
  5 20  1  0
  6 20  2  0
  7  9  1  0
  7 11  1  0
  9 10  1  0
 10 14  1  0
 11 12  2  0
 11 15  1  0
 12 13  1  0
 13 17  2  0
 14 18  1  0
 15 16  2  0
 16 17  1  0
 16 20  1  0
 19 21  2  0
 19 22  1  0
 21 23  1  0
 22 24  2  0
 23 25  2  0
 24 25  1  0
M  END
$$$$
