3162
     RDKit          2D

 20 21  0  0  1  0  0  0  0  0999 V2000
    3.3001    0.0000    0.0000 O   0  0  0  0  0  0  0  0  0  0  0  0
    4.9501   -1.4289    0.0000 N   0  0  0  0  0  0  0  0  0  0  0  0
    3.1895   -1.2375    0.0000 N   0  0  0  0  0  0  0  0  0  0  0  0
    2.4751    0.0000    0.0000 C   0  0  0  0  0  0  0  0  0  0  0  0
    2.4751    0.8250    0.0000 C   0  0  0  0  0  0  0  0  0  0  0  0
    2.4751   -0.8250    0.0000 C   0  0  0  0  0  0  0  0  0  0  0  0
    1.6500    0.0000    0.0000 C   0  0  0  0  0  0  0  0  0  0  0  0
    3.7126   -0.7145    0.0000 C   0  0  0  0  0  0  0  0  0  0  0  0
    4.5376   -0.7145    0.0000 C   0  0  0  0  0  0  0  0  0  0  0  0
    1.7606    1.2375    0.0000 C   0  0  0  0  0  0  0  0  0  0  0  0
    3.1895    1.2375    0.0000 C   0  0  0  0  0  0  0  0  0  0  0  0
    1.7606   -1.2375    0.0000 C   0  0  0  0  0  0  0  0  0  0  0  0
    1.7606    2.0625    0.0000 C   0  0  0  0  0  0  0  0  0  0  0  0
    3.1895    2.0625    0.0000 C   0  0  0  0  0  0  0  0  0  0  0  0
    1.7606   -2.0625    0.0000 C   0  0  0  0  0  0  0  0  0  0  0  0
    2.4751    2.4751    0.0000 C   0  0  0  0  0  0  0  0  0  0  0  0
    5.7751   -1.4289    0.0000 C   0  0  0  0  0  0  0  0  0  0  0  0
    4.5376   -2.1435    0.0000 C   0  0  0  0  0  0  0  0  0  0  0  0
    3.1895   -2.0625    0.0000 C   0  0  0  0  0  0  0  0  0  0  0  0
    2.4751   -2.4751    0.0000 C   0  0  0  0  0  0  0  0  0  0  0  0
  1  4  1  0
  1  8  1  0
  2  9  1  0
  2 17  1  0
  2 18  1  0
  3  6  2  0
  3 19  1  0
  4  5  1  0
  4  6  1  0
  4  7  1  0
  5 10  2  0
  5 11  1  0
  6 12  1  0
  8  9  1  0
 10 13  1  0
 11 14  2  0
 12 15  2  0
 13 16  2  0
 14 16  1  0
 15 20  1  0
 19 20  2  0
M  END
$$$$
