451
     RDKit          2D

 24 25  0  0  1  0  0  0  0  0999 V2000
    4.9509    0.6683    0.0000 I   0  0  0  0  0  0  0  0  0  0  0  0
    2.0930    0.6683    0.0000 I   0  0  0  0  0  0  0  0  0  0  0  0
    6.3799    1.4933    0.0000 I   0  0  0  0  0  0  0  0  0  0  0  0
    4.9509    3.9683    0.0000 I   0  0  0  0  0  0  0  0  0  0  0  0
    3.5220    1.4933    0.0000 O   0  0  0  0  0  0  0  0  0  0  0  0
    2.0930   -3.4568    0.0000 O   0  0  0  0  0  0  0  0  0  0  0  0
    3.5220   -3.4568    0.0000 O   0  0  0  0  0  0  0  0  0  0  0  0
    6.3799    3.1433    0.0000 O   0  0  0  0  0  0  0  0  0  0  0  0
    2.0930   -1.8068    0.0000 N   0  0  0  0  0  0  0  0  0  0  0  0
    3.5220   -1.8068    0.0000 C   0  0  0  0  0  0  0  0  0  0  0  0
    2.8075   -2.2193    0.0000 C   0  0  0  0  0  0  0  0  0  0  0  0
    3.5220   -0.9818    0.0000 C   0  0  0  0  0  0  0  0  0  0  0  0
    2.8075   -0.5693    0.0000 C   0  0  0  0  0  0  0  0  0  0  0  0
    4.2365   -0.5693    0.0000 C   0  0  0  0  0  0  0  0  0  0  0  0
    3.5220    0.6683    0.0000 C   0  0  0  0  0  0  0  0  0  0  0  0
    4.2365    0.2558    0.0000 C   0  0  0  0  0  0  0  0  0  0  0  0
    2.8075    0.2558    0.0000 C   0  0  0  0  0  0  0  0  0  0  0  0
    2.8075   -3.0443    0.0000 C   0  0  0  0  0  0  0  0  0  0  0  0
    4.2365    1.9058    0.0000 C   0  0  0  0  0  0  0  0  0  0  0  0
    4.2365    2.7308    0.0000 C   0  0  0  0  0  0  0  0  0  0  0  0
    4.9509    1.4933    0.0000 C   0  0  0  0  0  0  0  0  0  0  0  0
    5.6655    1.9058    0.0000 C   0  0  0  0  0  0  0  0  0  0  0  0
    4.9509    3.1433    0.0000 C   0  0  0  0  0  0  0  0  0  0  0  0
    5.6655    2.7308    0.0000 C   0  0  0  0  0  0  0  0  0  0  0  0
  1 16  1  0
  2 17  1  0
  3 22  1  0
  4 23  1  0
  5 15  1  0
  5 19  1  0
  6 18  1  0
  7 18  2  0
  8 24  1  0
 11  9  1  1
 10 11  1  0
 10 12  1  0
 11 18  1  0
 12 13  2  0
 12 14  1  0
 13 17  1  0
 14 16  2  0
 15 16  1  0
 15 17  2  0
 19 20  2  0
 19 21  1  0
 20 23  1  0
 21 22  2  0
 22 24  1  0
 23 24  2  0
M  END
$$$$
