
     RDKit          2D

 25 26  0  0  0  0  0  0  0  0999 V2000
   -3.4473    0.0884    0.0000 N   0  0  0  0  0  0  0  0  0  0  0  0
   -4.1618   -0.3241    0.0000 C   0  0  0  0  0  0  0  0  0  0  0  0
   -4.1618   -1.1491    0.0000 C   0  0  0  0  0  0  0  0  0  0  0  0
   -3.4473   -1.5616    0.0000 C   0  0  0  0  0  0  0  0  0  0  0  0
   -2.7329   -1.1491    0.0000 C   0  0  0  0  0  0  0  0  0  0  0  0
   -2.7329   -0.3241    0.0000 C   0  0  0  0  0  0  0  0  0  0  0  0
   -2.0184    0.0884    0.0000 C   0  0  0  0  0  0  0  0  0  0  0  0
   -1.3039   -0.3241    0.0000 C   0  0  0  0  0  0  0  0  0  0  0  0
   -0.5894    0.0884    0.0000 C   0  0  0  0  0  0  0  0  0  0  0  0
    0.1250   -0.3241    0.0000 N   0  0  0  0  0  0  0  0  0  0  0  0
    0.8395    0.0884    0.0000 C   0  0  0  0  0  0  0  0  0  0  0  0
    1.5540   -0.3241    0.0000 C   0  0  0  0  0  0  0  0  0  0  0  0
    0.8395    0.9134    0.0000 C   0  0  0  0  0  0  0  0  0  0  0  0
    0.1250   -1.1491    0.0000 C   0  0  0  0  0  0  0  0  0  0  0  0
   -0.5894   -1.5616    0.0000 C   0  0  0  0  0  0  0  0  0  0  0  0
    0.8395   -1.5616    0.0000 C   0  0  0  0  0  0  0  0  0  0  0  0
   -2.0184    0.9134    0.0000 C   0  0  0  0  0  0  0  0  0  0  0  0
   -1.3039    1.3259    0.0000 N   0  0  0  0  0  0  0  0  0  0  0  0
   -1.9889   -2.1214    0.0000 C   0  0  0  0  0  0  0  0  0  0  0  0
   -2.7329    1.3259    0.0000 O   0  0  0  0  0  0  0  0  0  0  0  0
   -2.7033   -2.5339    0.0000 C   0  0  0  0  0  0  0  0  0  0  0  0
   -2.7033   -3.3589    0.0000 C   0  0  0  0  0  0  0  0  0  0  0  0
   -1.9889   -3.7715    0.0000 C   0  0  0  0  0  0  0  0  0  0  0  0
   -1.2745   -3.3589    0.0000 C   0  0  0  0  0  0  0  0  0  0  0  0
   -1.2745   -2.5339    0.0000 C   0  0  0  0  0  0  0  0  0  0  0  0
  1  2  2  0
  1  6  1  0
  2  3  1  0
  3  4  2  0
  4  5  1  0
  5  6  2  0
  6  7  1  0
  7  8  1  0
  8  9  1  0
  9 10  1  0
 10 11  1  0
 11 12  1  0
 11 13  1  0
 10 14  1  0
 14 15  1  0
 14 16  1  0
  7 17  1  0
 17 18  1  0
  7 19  1  0
 17 20  2  0
 19 21  2  0
 19 25  1  0
 21 22  1  0
 22 23  2  0
 23 24  1  0
 24 25  2  0
M  END
$$$$
