549
     RDKit          2D

 41 45  0  0  0  0  0  0  0  0999 V2000
   12.5724    1.7033    0.0000 S   0  0  0  0  0  0  0  0  0  0  0  0
    3.6703   -0.5547    0.0000 O   0  0  0  0  0  0  0  0  0  0  0  0
    4.3847   -1.7922    0.0000 O   0  0  0  0  0  0  0  0  0  0  0  0
    8.7922    1.6368    0.0000 O   0  0  0  0  0  0  0  0  0  0  0  0
   12.0598    0.1349    0.0000 O   0  0  0  0  0  0  0  0  0  0  0  0
   12.7425    0.8961    0.0000 O   0  0  0  0  0  0  0  0  0  0  0  0
   12.4023    2.5106    0.0000 O   0  0  0  0  0  0  0  0  0  0  0  0
    8.0233   -2.0436    0.0000 N   0  0  0  0  0  0  0  0  0  0  0  0
    5.0993   -0.5547    0.0000 N   0  0  0  0  0  0  0  0  0  0  0  0
   11.7651    1.5332    0.0000 N   0  0  0  0  0  0  0  0  0  0  0  0
    2.9558   -0.9672    0.0000 C   0  0  0  0  0  0  0  0  0  0  0  0
    2.2021   -0.6316    0.0000 C   0  0  0  0  0  0  0  0  0  0  0  0
    2.8695   -1.7876    0.0000 C   0  0  0  0  0  0  0  0  0  0  0  0
    1.6500   -1.2447    0.0000 C   0  0  0  0  0  0  0  0  0  0  0  0
    2.0625   -1.9592    0.0000 C   0  0  0  0  0  0  0  0  0  0  0  0
    4.3847   -0.9672    0.0000 C   0  0  0  0  0  0  0  0  0  0  0  0
    7.2427   -0.9672    0.0000 C   0  0  0  0  0  0  0  0  0  0  0  0
    8.0233   -0.7158    0.0000 C   0  0  0  0  0  0  0  0  0  0  0  0
    7.2427   -1.7922    0.0000 C   0  0  0  0  0  0  0  0  0  0  0  0
    5.8137   -0.9672    0.0000 C   0  0  0  0  0  0  0  0  0  0  0  0
    8.2796    0.0685    0.0000 C   0  0  0  0  0  0  0  0  0  0  0  0
    6.5282   -0.5547    0.0000 C   0  0  0  0  0  0  0  0  0  0  0  0
    8.5049   -1.3797    0.0000 C   0  0  0  0  0  0  0  0  0  0  0  0
    6.5282   -2.2047    0.0000 C   0  0  0  0  0  0  0  0  0  0  0  0
    5.8137   -1.7922    0.0000 C   0  0  0  0  0  0  0  0  0  0  0  0
    9.0869    0.2386    0.0000 C   0  0  0  0  0  0  0  0  0  0  0  0
    8.2796   -2.8277    0.0000 C   0  0  0  0  0  0  0  0  0  0  0  0
    9.3432    1.0228    0.0000 C   0  0  0  0  0  0  0  0  0  0  0  0
    9.6379   -0.3755    0.0000 C   0  0  0  0  0  0  0  0  0  0  0  0
   10.1505    1.1929    0.0000 C   0  0  0  0  0  0  0  0  0  0  0  0
   10.7015    0.5788    0.0000 C   0  0  0  0  0  0  0  0  0  0  0  0
   10.4452   -0.2053    0.0000 C   0  0  0  0  0  0  0  0  0  0  0  0
   11.5088    0.7490    0.0000 C   0  0  0  0  0  0  0  0  0  0  0  0
   13.3796    1.8735    0.0000 C   0  0  0  0  0  0  0  0  0  0  0  0
   13.9307    1.2594    0.0000 C   0  0  0  0  0  0  0  0  0  0  0  0
    9.0486    2.4210    0.0000 C   0  0  0  0  0  0  0  0  0  0  0  0
   13.6360    2.6576    0.0000 C   0  0  0  0  0  0  0  0  0  0  0  0
   14.7380    1.4295    0.0000 C   0  0  0  0  0  0  0  0  0  0  0  0
   13.6743    0.4752    0.0000 C   0  0  0  0  0  0  0  0  0  0  0  0
   14.4433    2.8277    0.0000 C   0  0  0  0  0  0  0  0  0  0  0  0
   14.9942    2.2137    0.0000 C   0  0  0  0  0  0  0  0  0  0  0  0
  1  6  2  0
  1  7  2  0
  1 10  1  0
  1 34  1  0
  2 11  1  0
  2 16  1  0
  3 16  2  0
  4 28  1  0
  4 36  1  0
  5 33  2  0
  8 19  1  0
  8 23  1  0
  8 27  1  0
  9 16  1  0
  9 20  1  0
 10 33  1  0
 11 12  1  0
 11 13  1  0
 12 14  1  0
 13 15  1  0
 14 15  1  0
 17 18  1  0
 17 19  2  0
 17 22  1  0
 18 21  1  0
 18 23  2  0
 19 24  1  0
 20 22  2  0
 20 25  1  0
 21 26  1  0
 24 25  2  0
 26 28  2  0
 26 29  1  0
 28 30  1  0
 29 32  2  0
 30 31  2  0
 31 32  1  0
 31 33  1  0
 34 35  2  0
 34 37  1  0
 35 38  1  0
 35 39  1  0
 37 40  2  0
 38 41  2  0
 40 41  1  0
M  END
$$$$
