806
     RDKit          2D

 20 21  0  0  0  0  0  0  0  0999 V2000
    6.6515    1.6500    0.0000 O   0  0  0  0  0  0  0  0  0  0  0  0
    5.2224   -0.8250    0.0000 O   0  0  0  0  0  0  0  0  0  0  0  0
    2.3645    1.6500    0.0000 O   0  0  0  0  0  0  0  0  0  0  0  0
    5.9370    0.4125    0.0000 N   0  0  0  0  0  0  0  0  0  0  0  0
    6.6515   -0.8250    0.0000 N   0  0  0  0  0  0  0  0  0  0  0  0
    8.1466    0.6639    0.0000 N   0  0  0  0  0  0  0  0  0  0  0  0
    8.1466   -0.6639    0.0000 N   0  0  0  0  0  0  0  0  0  0  0  0
    5.2224    0.8250    0.0000 C   0  0  0  0  0  0  0  0  0  0  0  0
    4.5080    0.4125    0.0000 C   0  0  0  0  0  0  0  0  0  0  0  0
    3.7935    0.8250    0.0000 C   0  0  0  0  0  0  0  0  0  0  0  0
    7.3659    0.4125    0.0000 C   0  0  0  0  0  0  0  0  0  0  0  0
    6.6515    0.8250    0.0000 C   0  0  0  0  0  0  0  0  0  0  0  0
    7.3659   -0.4125    0.0000 C   0  0  0  0  0  0  0  0  0  0  0  0
    5.9370   -0.4125    0.0000 C   0  0  0  0  0  0  0  0  0  0  0  0
    3.0791    0.4125    0.0000 C   0  0  0  0  0  0  0  0  0  0  0  0
    8.6280    0.0000    0.0000 C   0  0  0  0  0  0  0  0  0  0  0  0
    6.6515   -1.6500    0.0000 C   0  0  0  0  0  0  0  0  0  0  0  0
    8.4029    1.4482    0.0000 C   0  0  0  0  0  0  0  0  0  0  0  0
    2.3645    0.8250    0.0000 C   0  0  0  0  0  0  0  0  0  0  0  0
    1.6500    0.4125    0.0000 C   0  0  0  0  0  0  0  0  0  0  0  0
  1 12  2  0
  2 14  2  0
  3 19  2  0
  4  8  1  0
  4 12  1  0
  4 14  1  0
  5 13  1  0
  5 14  1  0
  5 17  1  0
  6 11  1  0
  6 16  1  0
  6 18  1  0
  7 13  1  0
  7 16  2  0
  8  9  1  0
  9 10  1  0
 10 15  1  0
 11 12  1  0
 11 13  2  0
 15 19  1  0
 19 20  1  0
M  END
$$$$
