
     RDKit          2D

 24 24  0  0  0  0  0  0  0  0999 V2000
   -2.3125    1.8250    0.0000 C   0  0  0  0  0  0  0  0  0  0  0  0
   -3.0270    1.4125    0.0000 C   0  0  0  0  0  0  0  0  0  0  0  0
   -3.0270    0.5875    0.0000 C   0  0  0  0  0  0  0  0  0  0  0  0
   -2.3125    0.1750    0.0000 C   0  0  0  0  0  0  0  0  0  0  0  0
   -1.5980    0.5875    0.0000 C   0  0  0  0  0  0  0  0  0  0  0  0
   -1.5980    1.4125    0.0000 C   0  0  0  0  0  0  0  0  0  0  0  0
   -2.3125    2.6500    0.0000 C   0  0  0  0  0  0  0  0  0  0  0  0
   -3.7414    1.8250    0.0000 C   0  0  0  0  0  0  0  0  0  0  0  0
   -4.4559    0.5875    0.0000 C   0  0  0  0  0  0  0  0  0  0  0  0
   -0.8836    0.1750    0.0000 C   0  0  0  0  0  0  0  0  0  0  0  0
   -0.8836    1.8250    0.0000 C   0  0  0  0  0  0  0  0  0  0  0  0
   -0.1691    1.4125    0.0000 C   0  0  0  0  0  0  0  0  0  0  0  0
    1.2599    1.4125    0.0000 C   0  0  0  0  0  0  0  0  0  0  0  0
    1.9743    1.8250    0.0000 C   0  0  0  0  0  0  0  0  0  0  0  0
    2.6888    1.4125    0.0000 C   0  0  0  0  0  0  0  0  0  0  0  0
    4.1177    1.4125    0.0000 C   0  0  0  0  0  0  0  0  0  0  0  0
   -3.7414    0.1750    0.0000 O   0  0  0  0  0  0  0  0  0  0  0  0
    4.8322    2.6500    0.0000 O   0  0  0  0  0  0  0  0  0  0  0  0
    4.8322    1.8250    0.0000 C   0  0  0  0  0  0  0  0  0  0  0  0
    5.5467    1.4125    0.0000 O   0  0  0  0  0  0  0  0  0  0  0  0
    0.5454    1.8250    0.0000 C   0  0  0  0  0  0  0  0  0  0  0  0
    0.5454    2.6500    0.0000 C   0  0  0  0  0  0  0  0  0  0  0  0
    3.4033    1.8250    0.0000 C   0  0  0  0  0  0  0  0  0  0  0  0
    3.4033    2.6500    0.0000 C   0  0  0  0  0  0  0  0  0  0  0  0
  1  2  2  0
  1  6  1  0
  2  3  1  0
  3  4  2  0
  4  5  1  0
  5  6  2  0
  1  7  1  0
  2  8  1  0
  3 17  1  0
 17  9  1  0
  5 10  1  0
  6 11  1  0
 11 12  2  0
 12 21  1  0
 21 13  2  0
 13 14  1  0
 14 15  2  0
 15 23  1  0
 23 16  2  0
 16 19  1  0
 19 18  2  0
 19 20  1  0
 21 22  1  0
 23 24  1  0
M  END
$$$$
