192
     RDKit          2D

 23 25  0  0  0  0  0  0  0  0999 V2000
    6.8716    0.2479    0.0000 O   0  0  0  0  0  0  0  0  0  0  0  0
    2.9554    0.8291    0.0000 N   0  0  0  0  0  0  0  0  0  0  0  0
    5.7156    1.0879    0.0000 N   0  0  0  0  0  0  0  0  0  0  0  0
    5.5662   -0.3333    0.0000 C   0  0  0  0  0  0  0  0  0  0  0  0
    5.0813    0.3341    0.0000 C   0  0  0  0  0  0  0  0  0  0  0  0
    6.2336   -0.8182    0.0000 C   0  0  0  0  0  0  0  0  0  0  0  0
    4.8988   -0.8182    0.0000 C   0  0  0  0  0  0  0  0  0  0  0  0
    5.9787   -1.6028    0.0000 C   0  0  0  0  0  0  0  0  0  0  0  0
    5.1537   -1.6028    0.0000 C   0  0  0  0  0  0  0  0  0  0  0  0
    4.2608    0.2479    0.0000 C   0  0  0  0  0  0  0  0  0  0  0  0
    6.0512    0.3341    0.0000 C   0  0  0  0  0  0  0  0  0  0  0  0
    3.7759    0.9153    0.0000 C   0  0  0  0  0  0  0  0  0  0  0  0
    7.0714   -0.6266    0.0000 C   0  0  0  0  0  0  0  0  0  0  0  0
    4.0611   -0.6266    0.0000 C   0  0  0  0  0  0  0  0  0  0  0  0
    6.5439   -2.2503    0.0000 C   0  0  0  0  0  0  0  0  0  0  0  0
    4.5887   -2.2503    0.0000 C   0  0  0  0  0  0  0  0  0  0  0  0
    7.6513   -1.2608    0.0000 C   0  0  0  0  0  0  0  0  0  0  0  0
    3.4812   -1.2608    0.0000 C   0  0  0  0  0  0  0  0  0  0  0  0
    7.3858   -2.0781    0.0000 C   0  0  0  0  0  0  0  0  0  0  0  0
    3.7467   -2.0781    0.0000 C   0  0  0  0  0  0  0  0  0  0  0  0
    2.4705    1.4966    0.0000 C   0  0  0  0  0  0  0  0  0  0  0  0
    1.6500    1.4103    0.0000 C   0  0  0  0  0  0  0  0  0  0  0  0
    2.8061    2.2503    0.0000 C   0  0  0  0  0  0  0  0  0  0  0  0
  1 11  2  0
  2 12  1  0
  2 21  1  0
  3 11  1  0
  4  5  1  0
  4  6  1  0
  4  7  1  0
  4 11  1  0
  5 10  1  0
  6  8  2  0
  6 13  1  0
  7  9  2  0
  7 14  1  0
  8  9  1  0
  8 15  1  0
  9 16  1  0
 10 12  1  0
 13 17  2  0
 14 18  2  0
 15 19  2  0
 16 20  2  0
 17 19  1  0
 18 20  1  0
 21 22  1  0
 21 23  1  0
M  END
$$$$
