 
     RDKit          2D

 21 23  0  0  1  0  0  0  0  0999 V2000
   17.5264  -10.4991    0.0000 C   0  0  0  0  0  0  0  0  0  0  0  0
   17.5264   -9.7044    0.0000 C   0  0  0  0  0  0  0  0  0  0  0  0
   18.2793  -10.9174    0.0000 C   0  0  0  0  0  0  0  0  0  0  0  0
   16.8572  -10.8756    0.0000 C   0  0  0  0  0  0  0  0  0  0  0  0
   18.2793  -10.1227    0.0000 C   0  0  0  0  0  0  0  0  0  0  0  0
   16.8572   -9.3279    0.0000 C   0  0  0  0  0  0  0  0  0  0  0  0
   18.2793   -9.3279    0.0000 C   0  0  0  0  0  0  0  0  0  0  0  0
   18.9486  -10.4991    0.0000 C   0  0  0  0  0  0  0  0  0  0  0  0
   19.6179  -10.1227    0.0000 C   0  0  0  0  0  0  0  0  0  0  0  0
   16.8572   -8.5331    0.0000 C   0  0  0  0  0  0  0  0  0  0  0  0
   18.9486   -9.7462    0.0000 C   0  0  0  0  0  0  0  0  0  0  0  0
   18.2793   -8.5331    0.0000 C   0  0  0  0  0  0  0  0  0  0  0  0
   19.6179  -10.9174    0.0000 N   0  0  0  0  0  0  0  0  0  0  0  0
   17.5682   -8.1149    0.0000 C   0  0  0  0  0  0  0  0  0  0  0  0
   16.1879   -8.1149    0.0000 O   0  0  0  0  0  0  0  0  0  0  0  0
   20.4545  -10.9174    0.0000 C   0  0  0  0  0  0  0  0  0  0  0  0
   20.9146  -11.6703    0.0000 C   0  0  0  0  0  0  0  0  0  0  0  0
   18.2793  -11.7958    0.0000 C   0  0  0  0  0  0  0  0  0  0  0  0
   21.7512  -11.6703    0.0000 C   0  0  0  0  0  0  0  0  0  0  0  0
   22.1695  -12.4233    0.0000 C   0  0  0  0  0  0  0  0  0  0  0  0
   22.1695  -10.9174    0.0000 C   0  0  0  0  0  0  0  0  0  0  0  0
  1  2  1  0
  1  3  1  0
  1  4  1  1
  1  5  1  0
  2  6  1  0
  2  7  2  0
  3  8  1  0
  5  9  1  0
  6 10  2  0
  7 11  1  0
  7 12  1  0
  8 13  1  0
 10 14  1  0
 10 15  1  0
  8 11  1  1
  9 13  1  0
 12 14  2  0
 13 16  1  0
 16 17  1  0
  3 18  1  6
 17 19  2  0
 19 20  1  0
 19 21  1  0
M  END
$$$$
