
     RDKit          2D

 94 98  0  0  1  0  0  0  0  0999 V2000
    4.4089   -8.0259    0.0000 C   0  0  0  0  0  0  0  0  0  0  0  0
   17.9262   -8.4702    0.0000 C   0  0  0  0  0  0  0  0  0  0  0  0
   17.2282   -8.0259    0.0000 C   0  0  0  0  0  0  0  0  0  0  0  0
   16.4666   -8.4702    0.0000 N   0  0  0  0  0  0  0  0  0  0  0  0
   15.7685   -8.0259    0.0000 C   0  0  0  0  0  0  0  0  0  0  0  0
   15.0705   -8.4702    0.0000 C   0  0  0  0  0  0  0  0  0  0  0  0
   14.3724   -8.0259    0.0000 N   0  0  0  0  0  0  0  0  0  0  0  0
   13.6108   -8.4702    0.0000 C   0  0  0  0  0  0  0  0  0  0  0  0
   12.9127   -8.0259    0.0000 C   0  0  0  0  0  0  0  0  0  0  0  0
   12.2147   -8.4702    0.0000 N   0  0  0  0  0  0  0  0  0  0  0  0
   11.5166   -8.0259    0.0000 C   0  0  0  0  0  0  0  0  0  0  0  0
   10.8185   -8.4702    0.0000 C   0  0  0  0  0  0  0  0  0  0  0  0
   10.8185   -9.2317    0.0000 C   0  0  0  0  0  0  0  0  0  0  0  0
   11.5166   -9.6759    0.0000 C   0  0  0  0  0  0  0  0  0  0  0  0
   12.2147   -9.2317    0.0000 C   0  0  0  0  0  0  0  0  0  0  0  0
   12.9127   -9.6759    0.0000 C   0  0  0  0  0  0  0  0  0  0  0  0
   12.9127  -10.5009    0.0000 C   0  0  0  0  0  0  0  0  0  0  0  0
   12.2147  -10.8818    0.0000 C   0  0  0  0  0  0  0  0  0  0  0  0
   11.5166  -10.4375    0.0000 C   0  0  0  0  0  0  0  0  0  0  0  0
   13.6108  -10.8818    0.0000 O   0  0  0  0  0  0  0  0  0  0  0  0
   10.1205   -8.0259    0.0000 N   0  0  0  0  0  0  0  0  0  0  0  0
    9.3589   -8.4702    0.0000 C   0  0  0  0  0  0  0  0  0  0  0  0
    8.6608   -8.0259    0.0000 C   0  0  0  0  0  0  0  0  0  0  0  0
    7.9627   -8.4702    0.0000 N   0  0  0  0  0  0  0  0  0  0  0  0
    7.2647   -8.0259    0.0000 C   0  0  0  0  0  0  0  0  0  0  0  0
    6.5032   -8.4702    0.0000 C   0  0  0  0  0  0  0  0  0  0  0  0
    5.8051   -8.0259    0.0000 N   0  0  0  0  0  0  0  0  0  0  0  0
    5.1070   -8.4068    0.0000 C   0  0  0  0  0  0  0  0  0  0  0  0
    5.1070   -9.2317    0.0000 O   0  0  0  0  0  0  0  0  0  0  0  0
    6.5032   -9.2317    0.0000 C   0  0  0  0  0  0  0  0  0  0  0  0
    5.8051   -9.6125    0.0000 C   0  0  0  0  0  0  0  0  0  0  0  0
    5.8051  -10.4375    0.0000 C   0  0  0  0  0  0  0  0  0  0  0  0
    5.1070  -10.8818    0.0000 N   0  0  0  0  0  0  0  0  0  0  0  0
    6.5032  -10.8818    0.0000 O   0  0  0  0  0  0  0  0  0  0  0  0
    7.2647   -7.2009    0.0000 O   0  0  0  0  0  0  0  0  0  0  0  0
    8.6608   -7.2009    0.0000 C   0  0  0  0  0  0  0  0  0  0  0  0
    9.3589   -6.8202    0.0000 C   0  0  0  0  0  0  0  0  0  0  0  0
    9.3589   -5.9952    0.0000 O   0  0  0  0  0  0  0  0  0  0  0  0
   10.1205   -7.2009    0.0000 O   0  0  0  0  0  0  0  0  0  0  0  0
    9.3589   -9.2317    0.0000 O   0  0  0  0  0  0  0  0  0  0  0  0
   11.5166   -7.2009    0.0000 O   0  0  0  0  0  0  0  0  0  0  0  0
   12.9127   -7.2009    0.0000 C   0  0  0  0  0  0  0  0  0  0  0  0
   12.2147   -6.8202    0.0000 C   0  0  0  0  0  0  0  0  0  0  0  0
   13.6108   -6.8202    0.0000 O   0  0  0  0  0  0  0  0  0  0  0  0
   13.6108   -9.2317    0.0000 O   0  0  0  0  0  0  0  0  0  0  0  0
   15.7685   -7.2644    0.0000 O   0  0  0  0  0  0  0  0  0  0  0  0
   17.2282   -7.2644    0.0000 C   0  0  0  0  0  0  0  0  0  0  0  0
   16.4666   -6.8202    0.0000 N   0  0  0  0  0  0  0  0  0  0  0  0
   17.9262   -6.8202    0.0000 O   0  0  0  0  0  0  0  0  0  0  0  0
   16.4666   -5.9952    0.0000 C   0  0  0  0  0  0  0  0  0  0  0  0
   15.7685   -5.6144    0.0000 C   0  0  0  0  0  0  0  0  0  0  0  0
   15.0705   -5.9952    0.0000 C   0  0  0  0  0  0  0  0  0  0  0  0
   14.3724   -5.6144    0.0000 S   0  0  0  0  0  0  0  0  0  0  0  0
   13.6108   -5.9952    0.0000 C   0  0  0  0  0  0  0  0  0  0  0  0
   17.2282   -5.6144    0.0000 C   0  0  0  0  0  0  0  0  0  0  0  0
   17.9262   -5.9952    0.0000 N   0  0  0  0  0  0  0  0  0  0  0  0
   18.6243   -5.6144    0.0000 C   0  0  0  0  0  0  0  0  0  0  0  0
   19.3224   -6.0587    0.0000 C   0  0  0  0  0  0  0  0  0  0  0  0
   20.0839   -5.6144    0.0000 C   0  0  0  0  0  0  0  0  0  0  0  0
   20.7820   -6.0587    0.0000 O   0  0  0  0  0  0  0  0  0  0  0  0
   20.0839   -4.7894    0.0000 O   0  0  0  0  0  0  0  0  0  0  0  0
   18.6243   -4.7894    0.0000 C   0  0  0  0  0  0  0  0  0  0  0  0
   17.2282   -4.7894    0.0000 O   0  0  0  0  0  0  0  0  0  0  0  0
   17.9262   -4.4087    0.0000 O   0  0  0  0  0  0  0  0  0  0  0  0
   19.3224   -4.4087    0.0000 N   0  0  0  0  0  0  0  0  0  0  0  0
   19.3224   -3.5837    0.0000 C   0  0  0  0  0  0  0  0  0  0  0  0
   18.6243   -3.2029    0.0000 C   0  0  0  0  0  0  0  0  0  0  0  0
   20.0839   -3.2029    0.0000 C   0  0  0  0  0  0  0  0  0  0  0  0
   20.0839   -2.3779    0.0000 O   0  0  0  0  0  0  0  0  0  0  0  0
   20.7820   -3.5837    0.0000 N   0  0  0  0  0  0  0  0  0  0  0  0
   18.6243   -2.3779    0.0000 C   0  0  0  0  0  0  0  0  0  0  0  0
   17.9262   -1.9971    0.0000 C   0  0  0  0  0  0  0  0  0  0  0  0
   17.9262   -1.1721    0.0000 C   0  0  0  0  0  0  0  0  0  0  0  0
   18.6877   -0.7914    0.0000 C   0  0  0  0  0  0  0  0  0  0  0  0
   19.3858   -1.1721    0.0000 C   0  0  0  0  0  0  0  0  0  0  0  0
   19.3858   -1.9971    0.0000 C   0  0  0  0  0  0  0  0  0  0  0  0
    3.7410   -8.5103    0.0000 N   0  0  0  0  0  0  0  0  0  0  0  0
    4.1547   -7.2411    0.0000 C   0  0  0  0  0  0  0  0  0  0  0  0
    3.0740   -8.0248    0.0000 C   0  0  0  0  0  0  0  0  0  0  0  0
    3.3295   -7.2404    0.0000 C   0  0  0  0  0  0  0  0  0  0  0  0
    2.2892   -8.2791    0.0000 O   0  0  0  0  0  0  0  0  0  0  0  0
   18.6582   -8.0891    0.0000 C   0  0  0  0  0  0  0  0  0  0  0  0
   18.7262   -7.2669    0.0000 C   0  0  0  0  0  0  0  0  0  0  0  0
   19.5292   -7.0775    0.0000 N   0  0  0  0  0  0  0  0  0  0  0  0
   19.9574   -7.7827    0.0000 C   0  0  0  0  0  0  0  0  0  0  0  0
   20.7680   -7.9363    0.0000 C   0  0  0  0  0  0  0  0  0  0  0  0
   21.0403   -8.7150    0.0000 C   0  0  0  0  0  0  0  0  0  0  0  0
   20.5020   -9.3402    0.0000 C   0  0  0  0  0  0  0  0  0  0  0  0
   19.4191   -8.4079    0.0000 C   0  0  0  0  0  0  0  0  0  0  0  0
   19.6914   -9.1867    0.0000 C   0  0  0  0  0  0  0  0  0  0  0  0
   14.3151  -10.4521    0.0000 S   0  0  0  0  0  0  0  0  0  0  0  0
   15.0394  -10.8471    0.0000 O   0  0  0  0  0  0  0  0  0  0  0  0
   14.7208   -9.7410    0.0000 O   0  0  0  0  0  0  0  0  0  0  0  0
   13.9057   -9.7410    0.0000 O   0  0  0  0  0  0  0  0  0  0  0  0
  1 28  1  1
  3  2  1  6
  3 47  1  0
  4  3  1  0
  5  4  1  0
 46  5  2  0
  6  5  1  0
  7  6  1  0
  8  7  1  0
 45  8  2  0
  9  8  1  0
  9 10  1  1
 42  9  1  0
 11 10  1  0
 12 11  1  0
 41 11  2  0
 12 13  1  6
 21 12  1  0
 14 13  1  0
 15 14  2  0
 19 14  1  0
 16 15  1  0
 17 16  2  0
 18 17  1  0
 20 17  1  0
 19 18  2  0
 22 21  1  0
 40 22  2  0
 23 22  1  0
 23 36  1  1
 24 23  1  0
 25 24  1  0
 35 25  2  0
 26 25  1  0
 27 26  1  0
 26 30  1  6
 28 27  1  0
 29 28  2  0
 31 30  1  0
 32 31  1  0
 33 32  1  0
 34 32  2  0
 37 36  1  0
 38 37  2  0
 39 37  1  0
 42 43  1  1
 42 44  1  0
 48 47  1  0
 49 47  2  0
 50 48  1  0
 50 51  1  1
 55 50  1  0
 52 51  1  0
 53 52  1  0
 54 53  1  0
 56 55  1  0
 63 55  2  0
 57 56  1  0
 57 58  1  6
 57 62  1  0
 59 58  1  0
 60 59  1  0
 61 59  2  0
 64 62  2  0
 65 62  1  0
 66 65  1  0
 66 67  1  1
 68 66  1  0
 71 67  1  0
 69 68  2  0
 70 68  1  0
 72 71  2  0
 76 71  1  0
 73 72  1  0
 74 73  2  0
 75 74  1  0
 76 75  2  0
 77  1  1  0
 78  1  1  0
 79 77  1  0
 80 78  1  0
 80 79  1  0
 79 81  2  0
  2 82  1  0
 84 83  1  0
 82 83  2  0
 85 84  1  0
 89 82  1  0
 89 85  2  0
 87 86  2  0
 85 86  1  0
 88 87  1  0
 90 88  2  0
 90 89  1  0
 20 91  1  0
 91 92  1  0
 91 93  2  0
 91 94  2  0
M  END
$$$$
