282
     RDKit          2D

 13 12  0  0  0  0  0  0  0  0999 V2000
    2.8075   -1.0743    0.0000 P   0  0  0  0  0  0  0  0  0  0  0  0
    4.2365   -0.2492    0.0000 P   0  0  0  0  0  0  0  0  0  0  0  0
    3.9345   -1.3762    0.0000 O   0  0  0  0  0  0  0  0  0  0  0  0
    2.3950   -0.3598    0.0000 O   0  0  0  0  0  0  0  0  0  0  0  0
    2.0930   -1.4868    0.0000 O   0  0  0  0  0  0  0  0  0  0  0  0
    4.9509    0.1633    0.0000 O   0  0  0  0  0  0  0  0  0  0  0  0
    4.6490   -0.9637    0.0000 O   0  0  0  0  0  0  0  0  0  0  0  0
    2.8075   -1.8993    0.0000 O   0  0  0  0  0  0  0  0  0  0  0  0
    4.0932    0.5632    0.0000 O   0  0  0  0  0  0  0  0  0  0  0  0
    2.6208    1.3955    0.0000 N   0  0  0  0  0  0  0  0  0  0  0  0
    3.5220   -0.6617    0.0000 C   0  0  0  0  0  0  0  0  0  0  0  0
    3.1095    0.0527    0.0000 C   0  0  0  0  0  0  0  0  0  0  0  0
    3.2527    0.8652    0.0000 C   0  0  0  0  0  0  0  0  0  0  0  0
  1  4  1  0
  1  5  1  0
  1  8  2  0
  1 11  1  0
  2  6  1  0
  2  7  1  0
  2  9  2  0
  2 11  1  0
  3 11  1  0
 10 13  1  0
 11 12  1  0
 12 13  1  0
M  END
$$$$
