754
     RDKit          2D

 15 16  0  0  1  0  0  0  0  0999 V2000
    4.2559    0.1222    0.0000 O   0  0  0  0  0  0  0  0  0  0  0  0
    1.9065    1.8292    0.0000 O   0  0  0  0  0  0  0  0  0  0  0  0
    3.2164    1.1617    0.0000 N   0  0  0  0  0  0  0  0  0  0  0  0
    2.1365    0.3771    0.0000 N   0  0  0  0  0  0  0  0  0  0  0  0
    2.8039   -0.1078    0.0000 C   0  0  0  0  0  0  0  0  0  0  0  0
    3.4714    0.3771    0.0000 C   0  0  0  0  0  0  0  0  0  0  0  0
    2.8039   -0.9328    0.0000 C   0  0  0  0  0  0  0  0  0  0  0  0
    2.3914    1.1617    0.0000 C   0  0  0  0  0  0  0  0  0  0  0  0
    3.7014    1.8292    0.0000 C   0  0  0  0  0  0  0  0  0  0  0  0
    3.5184   -1.3453    0.0000 C   0  0  0  0  0  0  0  0  0  0  0  0
    2.0894   -1.3453    0.0000 C   0  0  0  0  0  0  0  0  0  0  0  0
    3.3658    2.5828    0.0000 C   0  0  0  0  0  0  0  0  0  0  0  0
    3.5184   -2.1703    0.0000 C   0  0  0  0  0  0  0  0  0  0  0  0
    2.0894   -2.1703    0.0000 C   0  0  0  0  0  0  0  0  0  0  0  0
    2.8039   -2.5828    0.0000 C   0  0  0  0  0  0  0  0  0  0  0  0
  1  6  2  0
  2  8  2  0
  3  6  1  0
  3  8  1  0
  3  9  1  0
  4  5  1  0
  4  8  1  0
  5  6  1  0
  5  7  1  0
  7 10  2  0
  7 11  1  0
  9 12  1  0
 10 13  1  0
 11 14  2  0
 13 15  2  0
 14 15  1  0
M  END
$$$$
