398
     RDKit          2D

 32 34  0  0  0  0  0  0  0  0999 V2000
    1.6500    3.0938    0.0000 Cl  0  0  0  0  0  0  0  0  0  0  0  0
    2.2540    3.9188    0.0000 F   0  0  0  0  0  0  0  0  0  0  0  0
    3.9041    3.9188    0.0000 F   0  0  0  0  0  0  0  0  0  0  0  0
    3.0791    4.7439    0.0000 F   0  0  0  0  0  0  0  0  0  0  0  0
    5.2224   -3.0938    0.0000 O   0  0  0  0  0  0  0  0  0  0  0  0
    3.7935    0.2063    0.0000 O   0  0  0  0  0  0  0  0  0  0  0  0
    8.0804   -2.2688    0.0000 O   0  0  0  0  0  0  0  0  0  0  0  0
    4.5080    1.4438    0.0000 N   0  0  0  0  0  0  0  0  0  0  0  0
    5.2224    0.2063    0.0000 N   0  0  0  0  0  0  0  0  0  0  0  0
    7.3659   -4.3313    0.0000 N   0  0  0  0  0  0  0  0  0  0  0  0
    8.7949   -3.5063    0.0000 N   0  0  0  0  0  0  0  0  0  0  0  0
    3.7935    1.8563    0.0000 C   0  0  0  0  0  0  0  0  0  0  0  0
    3.0791    3.0938    0.0000 C   0  0  0  0  0  0  0  0  0  0  0  0
    3.7935    2.6813    0.0000 C   0  0  0  0  0  0  0  0  0  0  0  0
    5.2224   -0.6188    0.0000 C   0  0  0  0  0  0  0  0  0  0  0  0
    3.0791    1.4438    0.0000 C   0  0  0  0  0  0  0  0  0  0  0  0
    5.2224   -2.2688    0.0000 C   0  0  0  0  0  0  0  0  0  0  0  0
    2.3645    2.6813    0.0000 C   0  0  0  0  0  0  0  0  0  0  0  0
    5.9370   -1.0313    0.0000 C   0  0  0  0  0  0  0  0  0  0  0  0
    4.5080   -1.0313    0.0000 C   0  0  0  0  0  0  0  0  0  0  0  0
    2.3645    1.8563    0.0000 C   0  0  0  0  0  0  0  0  0  0  0  0
    5.9370   -1.8563    0.0000 C   0  0  0  0  0  0  0  0  0  0  0  0
    4.5080   -1.8563    0.0000 C   0  0  0  0  0  0  0  0  0  0  0  0
    4.5080    0.6188    0.0000 C   0  0  0  0  0  0  0  0  0  0  0  0
    3.0791    3.9188    0.0000 C   0  0  0  0  0  0  0  0  0  0  0  0
    5.9370   -3.5063    0.0000 C   0  0  0  0  0  0  0  0  0  0  0  0
    6.6515   -3.0938    0.0000 C   0  0  0  0  0  0  0  0  0  0  0  0
    7.3659   -3.5063    0.0000 C   0  0  0  0  0  0  0  0  0  0  0  0
    5.9370   -4.3313    0.0000 C   0  0  0  0  0  0  0  0  0  0  0  0
    6.6515   -4.7439    0.0000 C   0  0  0  0  0  0  0  0  0  0  0  0
    8.0804   -3.0938    0.0000 C   0  0  0  0  0  0  0  0  0  0  0  0
    9.5094   -3.0938    0.0000 C   0  0  0  0  0  0  0  0  0  0  0  0
  1 18  1  0
  2 25  1  0
  3 25  1  0
  4 25  1  0
  5 17  1  0
  5 26  1  0
  6 24  2  0
  7 31  2  0
  8 12  1  0
  8 24  1  0
  9 15  1  0
  9 24  1  0
 10 28  2  0
 10 30  1  0
 11 31  1  0
 11 32  1  0
 12 14  1  0
 12 16  2  0
 13 14  2  0
 13 18  1  0
 13 25  1  0
 15 19  2  0
 15 20  1  0
 16 21  1  0
 17 22  2  0
 17 23  1  0
 18 21  2  0
 19 22  1  0
 20 23  2  0
 26 27  2  0
 26 29  1  0
 27 28  1  0
 28 31  1  0
 29 30  2  0
M  END
$$$$
