786
     RDKit          2D

 23 22  0  0  1  0  0  0  0  0999 V2000
    6.6515    0.3341    0.0000 O   0  0  0  0  0  0  0  0  0  0  0  0
    4.5080   -0.9034    0.0000 O   0  0  0  0  0  0  0  0  0  0  0  0
    3.7935   -1.3159    0.0000 O   0  0  0  0  0  0  0  0  0  0  0  0
    5.2224   -1.3159    0.0000 O   0  0  0  0  0  0  0  0  0  0  0  0
    6.6515   -2.1409    0.0000 O   0  0  0  0  0  0  0  0  0  0  0  0
    3.7935    0.3341    0.0000 N   0  0  0  0  0  0  0  0  0  0  0  0
    2.3645   -1.3159    0.0000 N   0  0  0  0  0  0  0  0  0  0  0  0
    6.6515   -1.3159    0.0000 N   0  0  0  0  0  0  0  0  0  0  0  0
    2.3645    0.3341    0.0000 C   0  0  0  0  0  0  0  0  0  0  0  0
    3.0791   -0.0784    0.0000 C   0  0  0  0  0  0  0  0  0  0  0  0
    5.2224    0.3341    0.0000 C   0  0  0  0  0  0  0  0  0  0  0  0
    5.2224    1.1592    0.0000 C   0  0  0  0  0  0  0  0  0  0  0  0
    5.9370    1.5717    0.0000 C   0  0  0  0  0  0  0  0  0  0  0  0
    4.5080   -0.0784    0.0000 C   0  0  0  0  0  0  0  0  0  0  0  0
    2.7770    1.0486    0.0000 C   0  0  0  0  0  0  0  0  0  0  0  0
    1.9520   -0.3803    0.0000 C   0  0  0  0  0  0  0  0  0  0  0  0
    1.6500    0.7466    0.0000 C   0  0  0  0  0  0  0  0  0  0  0  0
    5.9370   -0.0784    0.0000 C   0  0  0  0  0  0  0  0  0  0  0  0
    3.0791   -0.9034    0.0000 C   0  0  0  0  0  0  0  0  0  0  0  0
    5.9370    2.3967    0.0000 C   0  0  0  0  0  0  0  0  0  0  0  0
    6.6515    1.1592    0.0000 C   0  0  0  0  0  0  0  0  0  0  0  0
    5.9370   -0.9034    0.0000 C   0  0  0  0  0  0  0  0  0  0  0  0
    2.3645   -2.1409    0.0000 C   0  0  0  0  0  0  0  0  0  0  0  0
 18  1  1  6
  2 14  2  0
  3 19  2  0
  4 22  2  0
  5  8  1  0
 10  6  1  6
  6 14  1  0
  7 19  1  0
  7 23  1  0
  8 22  1  0
  9 10  1  0
  9 15  1  0
  9 16  1  0
  9 17  1  0
 10 19  1  0
 11 12  1  6
 11 14  1  0
 11 18  1  0
 12 13  1  0
 13 20  1  0
 13 21  1  0
 18 22  1  0
M  END
$$$$
