 
     RDKit          2D

 21 24  0  0  1  0  0  0  0  0999 V2000
   14.4191  -12.1888    0.0000 C   0  0  0  0  0  0  0  0  0  0  0  0
   15.1319  -12.6085    0.0000 C   0  0  0  0  0  0  0  0  0  0  0  0
   14.4191  -11.3674    0.0000 C   0  0  0  0  0  0  0  0  0  0  0  0
   15.1319  -11.6787    0.0000 C   0  0  0  0  0  0  0  0  0  0  0  0
   13.7065  -12.5977    0.0000 C   0  0  0  0  0  0  0  0  0  0  0  0
   15.8447  -12.1961    0.0000 C   0  0  0  0  0  0  0  0  0  0  0  0
   15.1680  -13.4333    0.0000 C   0  0  0  0  0  0  0  0  0  0  0  0
   15.1392  -10.9550    0.0000 C   0  0  0  0  0  0  0  0  0  0  0  0
   13.7028  -10.9550    0.0000 C   0  0  0  0  0  0  0  0  0  0  0  0
   16.5684  -11.6787    0.0000 C   0  0  0  0  0  0  0  0  0  0  0  0
   13.7425  -13.4226    0.0000 C   0  0  0  0  0  0  0  0  0  0  0  0
   16.5611  -12.6122    0.0000 N   0  0  0  0  0  0  0  0  0  0  0  0
   15.8484  -11.3711    0.0000 C   0  0  0  0  0  0  0  0  0  0  0  0
   14.4517  -13.8350    0.0000 C   0  0  0  0  0  0  0  0  0  0  0  0
   15.1392  -10.1300    0.0000 C   0  0  0  0  0  0  0  0  0  0  0  0
   13.7028  -10.1300    0.0000 C   0  0  0  0  0  0  0  0  0  0  0  0
   17.4801  -12.1381    0.0000 C   0  0  0  0  0  0  0  0  0  0  0  0
   14.4191   -9.7140    0.0000 C   0  0  0  0  0  0  0  0  0  0  0  0
   12.9864   -9.7140    0.0000 O   0  0  0  0  0  0  0  0  0  0  0  0
   18.1494  -12.5543    0.0000 C   0  0  0  0  0  0  0  0  0  0  0  0
   18.8152  -12.1815    0.0000 C   0  0  0  0  0  0  0  0  0  0  0  0
  4 10  1  0
  5 11  1  0
  6 12  1  0
  6 13  1  1
  7 14  1  0
  8 15  2  0
  9 16  1  0
 12 17  1  0
 15 18  1  0
 16 19  1  0
 17 20  1  0
 20 21  2  3
  8 13  1  0
 10 12  1  0
 11 14  1  0
 16 18  2  0
  1  2  1  0
  1  3  1  0
  1  4  1  1
  1  5  1  0
  2  6  1  0
  2  7  1  6
  3  8  1  0
  3  9  2  0
M  END
$$$$
