940
     RDKit          2D

 25 27  0  0  0  0  0  0  0  0999 V2000
    4.5640   -0.1920    0.0000 O   0  0  0  0  0  0  0  0  0  0  0  0
    3.8495   -3.0795    0.0000 O   0  0  0  0  0  0  0  0  0  0  0  0
    3.1350   -0.1920    0.0000 O   0  0  0  0  0  0  0  0  0  0  0  0
    5.2784    1.8705    0.0000 N   0  0  0  0  0  0  0  0  0  0  0  0
    5.2784    1.0455    0.0000 C   0  0  0  0  0  0  0  0  0  0  0  0
    5.2784    2.6955    0.0000 C   0  0  0  0  0  0  0  0  0  0  0  0
    6.1034    1.8705    0.0000 C   0  0  0  0  0  0  0  0  0  0  0  0
    4.4534    1.8705    0.0000 C   0  0  0  0  0  0  0  0  0  0  0  0
    4.5640    0.6330    0.0000 C   0  0  0  0  0  0  0  0  0  0  0  0
    5.9929    3.1080    0.0000 C   0  0  0  0  0  0  0  0  0  0  0  0
    6.5159    1.1561    0.0000 C   0  0  0  0  0  0  0  0  0  0  0  0
    3.8495   -1.4295    0.0000 C   0  0  0  0  0  0  0  0  0  0  0  0
    3.8495   -0.6045    0.0000 C   0  0  0  0  0  0  0  0  0  0  0  0
    4.5640   -1.8420    0.0000 C   0  0  0  0  0  0  0  0  0  0  0  0
    3.1350   -1.8420    0.0000 C   0  0  0  0  0  0  0  0  0  0  0  0
    4.5640   -2.6670    0.0000 C   0  0  0  0  0  0  0  0  0  0  0  0
    3.1350   -2.6670    0.0000 C   0  0  0  0  0  0  0  0  0  0  0  0
    5.3015   -1.4008    0.0000 C   0  0  0  0  0  0  0  0  0  0  0  0
    2.3975   -1.4008    0.0000 C   0  0  0  0  0  0  0  0  0  0  0  0
    5.3015   -3.1080    0.0000 C   0  0  0  0  0  0  0  0  0  0  0  0
    2.3975   -3.1080    0.0000 C   0  0  0  0  0  0  0  0  0  0  0  0
    6.0490   -1.8248    0.0000 C   0  0  0  0  0  0  0  0  0  0  0  0
    1.6500   -1.8248    0.0000 C   0  0  0  0  0  0  0  0  0  0  0  0
    6.0490   -2.6841    0.0000 C   0  0  0  0  0  0  0  0  0  0  0  0
    1.6500   -2.6841    0.0000 C   0  0  0  0  0  0  0  0  0  0  0  0
  1  9  1  0
  1 13  1  0
  2 16  1  0
  2 17  1  0
  3 13  2  0
  4  5  1  0
  4  6  1  0
  4  7  1  0
  4  8  1  0
  5  9  1  0
  6 10  1  0
  7 11  1  0
 12 13  1  0
 12 14  1  0
 12 15  1  0
 14 16  2  0
 14 18  1  0
 15 17  2  0
 15 19  1  0
 16 20  1  0
 17 21  1  0
 18 22  2  0
 19 23  2  0
 20 24  2  0
 21 25  2  0
 22 24  1  0
 23 25  1  0
M  CHG  1   4   1
M  END
$$$$
