310
     RDKit          2D

 22 24  0  0  1  0  0  0  0  0999 V2000
    6.5328    2.0236    0.0000 Cl  0  0  0  0  0  0  0  0  0  0  0  0
    6.7024    0.3823    0.0000 S   0  0  0  0  0  0  0  0  0  0  0  0
    3.6061    0.8735    0.0000 O   0  0  0  0  0  0  0  0  0  0  0  0
    4.1159   -2.0236    0.0000 O   0  0  0  0  0  0  0  0  0  0  0  0
    7.0393    1.1354    0.0000 O   0  0  0  0  0  0  0  0  0  0  0  0
    6.3656   -0.3708    0.0000 O   0  0  0  0  0  0  0  0  0  0  0  0
    4.3411   -0.5754    0.0000 N   0  0  0  0  0  0  0  0  0  0  0  0
    7.4556    0.0454    0.0000 N   0  0  0  0  0  0  0  0  0  0  0  0
    3.8597    0.0884    0.0000 C   0  0  0  0  0  0  0  0  0  0  0  0
    3.0790   -0.1629    0.0000 C   0  0  0  0  0  0  0  0  0  0  0  0
    4.5279    0.5722    0.0000 C   0  0  0  0  0  0  0  0  0  0  0  0
    3.0790   -0.9880    0.0000 C   0  0  0  0  0  0  0  0  0  0  0  0
    3.8597   -1.2393    0.0000 C   0  0  0  0  0  0  0  0  0  0  0  0
    5.2810    0.2354    0.0000 C   0  0  0  0  0  0  0  0  0  0  0  0
    2.3645    0.2496    0.0000 C   0  0  0  0  0  0  0  0  0  0  0  0
    4.4431    1.3929    0.0000 C   0  0  0  0  0  0  0  0  0  0  0  0
    5.9493    0.7192    0.0000 C   0  0  0  0  0  0  0  0  0  0  0  0
    2.3645   -1.4005    0.0000 C   0  0  0  0  0  0  0  0  0  0  0  0
    1.6500   -0.1629    0.0000 C   0  0  0  0  0  0  0  0  0  0  0  0
    5.1114    1.8767    0.0000 C   0  0  0  0  0  0  0  0  0  0  0  0
    5.8645    1.5398    0.0000 C   0  0  0  0  0  0  0  0  0  0  0  0
    1.6500   -0.9880    0.0000 C   0  0  0  0  0  0  0  0  0  0  0  0
  1 21  1  0
  2  5  2  0
  2  6  2  0
  2  8  1  0
  2 17  1  0
  3  9  1  0
  4 13  2  0
  7  9  1  0
  7 13  1  0
  9 10  1  0
  9 11  1  0
 10 12  2  0
 10 15  1  0
 11 14  2  0
 11 16  1  0
 12 13  1  0
 12 18  1  0
 14 17  1  0
 15 19  2  0
 16 20  2  0
 17 21  2  0
 18 22  2  0
 19 22  1  0
 20 21  1  0
M  END
$$$$
