495
     RDKit          2D

 19 20  0  0  1  0  0  0  0  0999 V2000
    4.8558   -1.0026    0.0000 O   0  0  0  0  0  0  0  0  0  0  0  0
    5.9063   -2.3685    0.0000 O   0  0  0  0  0  0  0  0  0  0  0  0
    2.7595    0.3073    0.0000 O   0  0  0  0  0  0  0  0  0  0  0  0
    4.1884    2.7823    0.0000 O   0  0  0  0  0  0  0  0  0  0  0  0
    4.1884    0.3073    0.0000 N   0  0  0  0  0  0  0  0  0  0  0  0
    3.2909   -2.4547    0.0000 N   0  0  0  0  0  0  0  0  0  0  0  0
    3.4739    1.5448    0.0000 N   0  0  0  0  0  0  0  0  0  0  0  0
    2.4705   -2.3685    0.0000 N   0  0  0  0  0  0  0  0  0  0  0  0
    1.6500   -2.2822    0.0000 N   0  0  0  0  0  0  0  0  0  0  0  0
    3.7759   -1.7873    0.0000 C   0  0  0  0  0  0  0  0  0  0  0  0
    4.1884   -0.5177    0.0000 C   0  0  0  0  0  0  0  0  0  0  0  0
    3.5210   -1.0026    0.0000 C   0  0  0  0  0  0  0  0  0  0  0  0
    4.6009   -1.7873    0.0000 C   0  0  0  0  0  0  0  0  0  0  0  0
    5.0858   -2.4547    0.0000 C   0  0  0  0  0  0  0  0  0  0  0  0
    4.9029    0.7198    0.0000 C   0  0  0  0  0  0  0  0  0  0  0  0
    3.4739    0.7198    0.0000 C   0  0  0  0  0  0  0  0  0  0  0  0
    4.9029    1.5448    0.0000 C   0  0  0  0  0  0  0  0  0  0  0  0
    4.1884    1.9573    0.0000 C   0  0  0  0  0  0  0  0  0  0  0  0
    5.6174    1.9573    0.0000 C   0  0  0  0  0  0  0  0  0  0  0  0
  1 11  1  0
  1 13  1  0
  2 14  1  0
  3 16  2  0
  4 18  2  0
 11  5  1  6
  5 15  1  0
  5 16  1  0
  6  8  2  3
 10  6  1  1
  7 16  1  0
  7 18  1  0
  8  9  2  0
 10 12  1  0
 10 13  1  0
 11 12  1  0
 13 14  1  6
 15 17  2  0
 17 18  1  0
 17 19  1  0
M  CHG  2   8   1   9  -1
M  END
$$$$
