555
     RDKit          2D

 16 17  0  0  0  0  0  0  0  0999 V2000
    4.9509    0.9529    0.0000 Cl  0  0  0  0  0  0  0  0  0  0  0  0
    4.9509    2.6029    0.0000 Cl  0  0  0  0  0  0  0  0  0  0  0  0
    4.2365   -0.2846    0.0000 N   0  0  0  0  0  0  0  0  0  0  0  0
    2.8075   -1.1096    0.0000 N   0  0  0  0  0  0  0  0  0  0  0  0
    2.0930    0.1279    0.0000 N   0  0  0  0  0  0  0  0  0  0  0  0
    4.2365   -1.1096    0.0000 N   0  0  0  0  0  0  0  0  0  0  0  0
    3.5220   -2.3472    0.0000 N   0  0  0  0  0  0  0  0  0  0  0  0
    3.5220    0.9529    0.0000 C   0  0  0  0  0  0  0  0  0  0  0  0
    3.5220    0.1279    0.0000 C   0  0  0  0  0  0  0  0  0  0  0  0
    4.2365    1.3654    0.0000 C   0  0  0  0  0  0  0  0  0  0  0  0
    2.8075    1.3654    0.0000 C   0  0  0  0  0  0  0  0  0  0  0  0
    2.8075   -0.2846    0.0000 C   0  0  0  0  0  0  0  0  0  0  0  0
    4.2365    2.1904    0.0000 C   0  0  0  0  0  0  0  0  0  0  0  0
    2.8075    2.1904    0.0000 C   0  0  0  0  0  0  0  0  0  0  0  0
    3.5220    2.6029    0.0000 C   0  0  0  0  0  0  0  0  0  0  0  0
    3.5220   -1.5222    0.0000 C   0  0  0  0  0  0  0  0  0  0  0  0
  1 10  1  0
  2 13  1  0
  3  6  2  0
  3  9  1  0
  4 12  1  0
  4 16  2  0
  5 12  1  0
  6 16  1  0
  7 16  1  0
  8  9  1  0
  8 10  2  0
  8 11  1  0
  9 12  2  0
 10 13  1  0
 11 14  2  0
 13 15  2  0
 14 15  1  0
M  END
$$$$
