607
     RDKit          2D

 29 32  0  0  1  0  0  0  0  0999 V2000
    2.4706   -0.9373    0.0000 S   0  0  0  0  0  0  0  0  0  0  0  0
    5.2055   -0.5677    0.0000 O   0  0  0  0  0  0  0  0  0  0  0  0
    3.3348   -3.3100    0.0000 O   0  0  0  0  0  0  0  0  0  0  0  0
    4.6094   -2.6639    0.0000 O   0  0  0  0  0  0  0  0  0  0  0  0
    5.2224    0.8501    0.0000 O   0  0  0  0  0  0  0  0  0  0  0  0
    3.0790    2.0876    0.0000 O   0  0  0  0  0  0  0  0  0  0  0  0
    3.7886   -1.1488    0.0000 N   0  0  0  0  0  0  0  0  0  0  0  0
    3.7935    0.8501    0.0000 N   0  0  0  0  0  0  0  0  0  0  0  0
    3.2065   -0.5643    0.0000 C   0  0  0  0  0  0  0  0  0  0  0  0
    2.5979   -1.7525    0.0000 C   0  0  0  0  0  0  0  0  0  0  0  0
    3.4126   -1.8832    0.0000 C   0  0  0  0  0  0  0  0  0  0  0  0
    3.7935    0.0251    0.0000 C   0  0  0  0  0  0  0  0  0  0  0  0
    4.3805   -0.5643    0.0000 C   0  0  0  0  0  0  0  0  0  0  0  0
    1.7828   -1.8799    0.0000 C   0  0  0  0  0  0  0  0  0  0  0  0
    2.4673   -2.5670    0.0000 C   0  0  0  0  0  0  0  0  0  0  0  0
    3.7856   -2.6191    0.0000 C   0  0  0  0  0  0  0  0  0  0  0  0
    4.5079    1.2626    0.0000 C   0  0  0  0  0  0  0  0  0  0  0  0
    4.5079    2.0876    0.0000 C   0  0  0  0  0  0  0  0  0  0  0  0
    5.2224    2.5001    0.0000 C   0  0  0  0  0  0  0  0  0  0  0  0
    3.7935    2.5001    0.0000 C   0  0  0  0  0  0  0  0  0  0  0  0
    5.2224    3.3251    0.0000 C   0  0  0  0  0  0  0  0  0  0  0  0
    3.7935    3.3251    0.0000 C   0  0  0  0  0  0  0  0  0  0  0  0
    5.9599    2.0591    0.0000 C   0  0  0  0  0  0  0  0  0  0  0  0
    4.5079    3.7376    0.0000 C   0  0  0  0  0  0  0  0  0  0  0  0
    5.9599    3.7662    0.0000 C   0  0  0  0  0  0  0  0  0  0  0  0
    6.7074    2.4829    0.0000 C   0  0  0  0  0  0  0  0  0  0  0  0
    6.7074    3.3424    0.0000 C   0  0  0  0  0  0  0  0  0  0  0  0
    2.3645    2.5001    0.0000 C   0  0  0  0  0  0  0  0  0  0  0  0
    1.6500    2.0876    0.0000 C   0  0  0  0  0  0  0  0  0  0  0  0
  9  1  1  6
  1 10  1  0
  2 13  2  0
  3 16  1  0
  4 16  2  0
  5 17  2  0
  6 20  1  0
  6 28  1  0
  7  9  1  0
  7 11  1  0
  7 13  1  0
 12  8  1  6
  8 17  1  0
  9 12  1  0
 10 11  1  0
 10 14  1  0
 10 15  1  0
 11 16  1  1
 12 13  1  0
 17 18  1  0
 18 19  1  0
 18 20  2  0
 19 21  2  0
 19 23  1  0
 20 22  1  0
 21 24  1  0
 21 25  1  0
 22 24  2  0
 23 26  2  0
 25 27  2  0
 26 27  1  0
 28 29  1  0
M  END
$$$$
