
     RDKit          2D

 51 55  0  0  0  0  0  0  0  0999 V2000
   -5.7136    2.2391    0.0000 C   0  0  0  0  0  0  0  0  0  0  0  0
   -5.7148    1.4112    0.0000 C   0  0  0  0  0  0  0  0  0  0  0  0
   -4.9989    0.9959    0.0000 C   0  0  0  0  0  0  0  0  0  0  0  0
   -5.0007    2.6500    0.0000 C   0  0  0  0  0  0  0  0  0  0  0  0
   -4.2844    2.2427    0.0000 C   0  0  0  0  0  0  0  0  0  0  0  0
   -4.2810    1.4138    0.0000 C   0  0  0  0  0  0  0  0  0  0  0  0
   -3.5647    1.0022    0.0000 C   0  0  0  0  0  0  0  0  0  0  0  0
   -3.5715    2.6604    0.0000 C   0  0  0  0  0  0  0  0  0  0  0  0
   -2.8506    2.2485    0.0000 C   0  0  0  0  0  0  0  0  0  0  0  0
   -2.8481    1.4235    0.0000 C   0  0  0  0  0  0  0  0  0  0  0  0
   -2.1373    1.0129    0.0000 C   0  0  0  0  0  0  0  0  0  0  0  0
   -2.1461    2.6612    0.0000 C   0  0  0  0  0  0  0  0  0  0  0  0
   -3.5759    3.4858    0.0000 O   0  0  0  0  0  0  0  0  0  0  0  0
   -3.5604    0.1767    0.0000 O   0  0  0  0  0  0  0  0  0  0  0  0
   -4.9932    0.1709    0.0000 O   0  0  0  0  0  0  0  0  0  0  0  0
   -4.2775   -0.2394    0.0000 C   0  0  0  0  0  0  0  0  0  0  0  0
   -2.1522    3.4866    0.0000 O   0  0  0  0  0  0  0  0  0  0  0  0
   -2.1339    0.1874    0.0000 O   0  0  0  0  0  0  0  0  0  0  0  0
   -1.4305    2.2583    0.0000 C   0  0  0  0  0  0  0  0  0  0  0  0
   -1.4271    1.4346    0.0000 C   0  0  0  0  0  0  0  0  0  0  0  0
   -0.7152    1.0258    0.0000 C   0  0  0  0  0  0  0  0  0  0  0  0
   -0.0024    1.4406    0.0000 C   0  0  0  0  0  0  0  0  0  0  0  0
   -0.0059    2.2645    0.0000 C   0  0  0  0  0  0  0  0  0  0  0  0
   -0.7223    2.6735    0.0000 C   0  0  0  0  0  0  0  0  0  0  0  0
    0.7081    2.6775    0.0000 C   0  0  0  0  0  0  0  0  0  0  0  0
    1.4260    2.2704    0.0000 C   0  0  0  0  0  0  0  0  0  0  0  0
    0.7063    3.5043    0.0000 O   0  0  0  0  0  0  0  0  0  0  0  0
    2.1393    2.6850    0.0000 O   0  0  0  0  0  0  0  0  0  0  0  0
    2.8528    2.2779    0.0000 C   0  0  0  0  0  0  0  0  0  0  0  0
    0.7054    1.8532    0.0000 O   0  0  0  0  0  0  0  0  0  0  0  0
   -0.7129    0.2003    0.0000 O   0  0  0  0  0  0  0  0  0  0  0  0
    2.8571    1.4525    0.0000 O   0  0  0  0  0  0  0  0  0  0  0  0
    3.5661    2.6925    0.0000 C   0  0  0  0  0  0  0  0  0  0  0  0
    4.2838    2.2857    0.0000 C   0  0  0  0  0  0  0  0  0  0  0  0
    4.9970    2.7002    0.0000 C   0  0  0  0  0  0  0  0  0  0  0  0
    5.7148    2.2933    0.0000 C   0  0  0  0  0  0  0  0  0  0  0  0
    0.0037   -0.2082    0.0000 C   0  0  0  0  0  0  0  0  0  0  0  0
    0.0003   -1.0305    0.0000 C   0  0  0  0  0  0  0  0  0  0  0  0
    0.7129   -1.4431    0.0000 C   0  0  0  0  0  0  0  0  0  0  0  0
    1.4297   -1.0296    0.0000 C   0  0  0  0  0  0  0  0  0  0  0  0
    1.4293   -0.2032    0.0000 C   0  0  0  0  0  0  0  0  0  0  0  0
    0.7121    0.2098    0.0000 O   0  0  0  0  0  0  0  0  0  0  0  0
    2.1449    0.2070    0.0000 C   0  0  0  0  0  0  0  0  0  0  0  0
    2.1448   -1.4451    0.0000 O   0  0  0  0  0  0  0  0  0  0  0  0
    0.7122   -2.2688    0.0000 N   0  0  0  0  0  0  0  0  0  0  0  0
   -0.0035   -2.6788    0.0000 C   0  0  0  0  0  0  0  0  0  0  0  0
   -0.7186   -2.2675    0.0000 C   0  0  0  0  0  0  0  0  0  0  0  0
   -0.0042   -3.5043    0.0000 O   0  0  0  0  0  0  0  0  0  0  0  0
   -0.7179   -1.4420    0.0000 F   0  0  0  0  0  0  0  0  0  0  0  0
   -1.4345   -2.6776    0.0000 F   0  0  0  0  0  0  0  0  0  0  0  0
   -1.4392   -1.8513    0.0000 F   0  0  0  0  0  0  0  0  0  0  0  0
 11 20  2  0
 23 25  1  0
 19 12  2  0
 25 26  1  0
 25 27  2  0
 12  9  1  0
 26 28  1  0
  2  3  1  0
 28 29  1  0
  8 13  2  0
 23 30  1  6
  3  6  2  0
 21 31  1  6
  7 14  2  0
  1  2  2  0
 29 32  2  0
  5  8  1  0
 29 33  1  0
 15 16  1  0
 33 34  1  0
  3 15  1  0
 34 35  1  0
  6  7  1  0
 35 36  1  0
 12 17  1  0
 37 31  1  6
 37 38  1  0
  7 10  1  0
 11 18  1  0
 19 20  1  0
  9  8  1  0
  5  4  2  0
 37 42  1  0
 38 39  1  0
 39 40  1  0
 40 41  1  0
 41 42  1  0
  4  1  1  0
 41 43  1  1
  9 10  2  0
 40 44  1  1
  5  6  1  0
 39 45  1  1
 10 11  1  0
 45 46  1  0
 19 24  1  0
 46 47  1  0
 20 21  1  0
 46 48  2  0
 21 22  1  0
 47 49  1  0
 22 23  1  0
 47 50  1  0
 23 24  1  0
 47 51  1  0
M  END
$$$$
