
     RDKit          2D

 67 72  0  0  0  0  0  0  0  0999 V2000
   -8.5806    1.1793    0.0000 O   0  0  0  0  0  0  0  0  0  0  0  0
    8.5807    1.1979    0.0000 O   0  0  0  0  0  0  0  0  0  0  0  0
   -8.5806    2.8323    0.0000 O   0  0  0  0  0  0  0  0  0  0  0  0
    8.5807    2.8509    0.0000 O   0  0  0  0  0  0  0  0  0  0  0  0
   -2.8602    0.3622    0.0000 O   0  0  0  0  0  0  0  0  0  0  0  0
    2.8417    0.3807    0.0000 O   0  0  0  0  0  0  0  0  0  0  0  0
   -2.8602   -1.2908    0.0000 O   0  0  0  0  0  0  0  0  0  0  0  0
    2.8417   -1.2722    0.0000 O   0  0  0  0  0  0  0  0  0  0  0  0
   -2.1359    1.5879    0.0000 O   0  0  0  0  0  0  0  0  0  0  0  0
    2.1359    1.6065    0.0000 O   0  0  0  0  0  0  0  0  0  0  0  0
   -2.8602    2.8323    0.0000 O   0  0  0  0  0  0  0  0  0  0  0  0
    2.8602    2.8509    0.0000 O   0  0  0  0  0  0  0  0  0  0  0  0
   -4.9960    1.5694    0.0000 N   0  0  0  0  0  0  0  0  0  0  0  0
    4.9961    1.6065    0.0000 N   0  0  0  0  0  0  0  0  0  0  0  0
   -5.7204    1.1607    0.0000 C   0  0  0  0  0  0  0  0  0  0  0  0
    5.7204    1.1979    0.0000 C   0  0  0  0  0  0  0  0  0  0  0  0
   -6.4262    1.5879    0.0000 C   0  0  0  0  0  0  0  0  0  0  0  0
    6.4262    1.6065    0.0000 C   0  0  0  0  0  0  0  0  0  0  0  0
   -6.4262    2.4051    0.0000 C   0  0  0  0  0  0  0  0  0  0  0  0
    6.4262    2.4237    0.0000 C   0  0  0  0  0  0  0  0  0  0  0  0
   -4.9960    2.4051    0.0000 C   0  0  0  0  0  0  0  0  0  0  0  0
    4.9961    2.4422    0.0000 C   0  0  0  0  0  0  0  0  0  0  0  0
   -7.1505    1.1793    0.0000 C   0  0  0  0  0  0  0  0  0  0  0  0
    7.1505    1.1979    0.0000 C   0  0  0  0  0  0  0  0  0  0  0  0
   -5.7018    2.8137    0.0000 C   0  0  0  0  0  0  0  0  0  0  0  0
    5.7204    2.8509    0.0000 C   0  0  0  0  0  0  0  0  0  0  0  0
   -5.7204    0.3435    0.0000 C   0  0  0  0  0  0  0  0  0  0  0  0
    5.7204    0.3807    0.0000 C   0  0  0  0  0  0  0  0  0  0  0  0
   -7.8563    1.5879    0.0000 C   0  0  0  0  0  0  0  0  0  0  0  0
    7.8563    1.6065    0.0000 C   0  0  0  0  0  0  0  0  0  0  0  0
   -7.1505    2.8323    0.0000 C   0  0  0  0  0  0  0  0  0  0  0  0
    7.1505    2.8509    0.0000 C   0  0  0  0  0  0  0  0  0  0  0  0
   -7.8563    2.4051    0.0000 C   0  0  0  0  0  0  0  0  0  0  0  0
    7.8563    2.4237    0.0000 C   0  0  0  0  0  0  0  0  0  0  0  0
   -4.2902    1.9965    0.0000 C   0  0  0  0  0  0  0  0  0  0  0  0
    4.2903    2.0151    0.0000 C   0  0  0  0  0  0  0  0  0  0  0  0
   -4.9960   -0.0649    0.0000 C   0  0  0  0  0  0  0  0  0  0  0  0
    4.9961   -0.0279    0.0000 C   0  0  0  0  0  0  0  0  0  0  0  0
    4.2903    1.1979    0.0000 C   0  0  0  0  0  0  0  0  0  0  0  0
   -4.2902    1.1793    0.0000 C   0  0  0  0  0  0  0  0  0  0  0  0
   -3.5659    1.5879    0.0000 C   0  0  0  0  0  0  0  0  0  0  0  0
    3.5660    1.6065    0.0000 C   0  0  0  0  0  0  0  0  0  0  0  0
   -4.2902    0.3622    0.0000 C   0  0  0  0  0  0  0  0  0  0  0  0
    4.2903    0.3807    0.0000 C   0  0  0  0  0  0  0  0  0  0  0  0
   -4.9960   -0.8822    0.0000 C   0  0  0  0  0  0  0  0  0  0  0  0
    4.9961   -0.8636    0.0000 C   0  0  0  0  0  0  0  0  0  0  0  0
   -3.5845   -0.0649    0.0000 C   0  0  0  0  0  0  0  0  0  0  0  0
    3.5660   -0.0464    0.0000 C   0  0  0  0  0  0  0  0  0  0  0  0
   -3.5659   -0.8822    0.0000 C   0  0  0  0  0  0  0  0  0  0  0  0
    3.5660   -0.8636    0.0000 C   0  0  0  0  0  0  0  0  0  0  0  0
   -2.8602    1.9965    0.0000 C   0  0  0  0  0  0  0  0  0  0  0  0
    2.8602    2.0151    0.0000 C   0  0  0  0  0  0  0  0  0  0  0  0
   -4.2902   -1.2908    0.0000 C   0  0  0  0  0  0  0  0  0  0  0  0
    4.2903   -1.2722    0.0000 C   0  0  0  0  0  0  0  0  0  0  0  0
   -9.2864    1.5879    0.0000 C   0  0  0  0  0  0  0  0  0  0  0  0
    9.2864    1.6065    0.0000 C   0  0  0  0  0  0  0  0  0  0  0  0
   -9.2864    2.4237    0.0000 C   0  0  0  0  0  0  0  0  0  0  0  0
    9.2864    2.4422    0.0000 C   0  0  0  0  0  0  0  0  0  0  0  0
   -1.4301    1.9965    0.0000 C   0  0  0  0  0  0  0  0  0  0  0  0
    1.4301    2.0151    0.0000 C   0  0  0  0  0  0  0  0  0  0  0  0
   -2.1544   -0.0464    0.0000 C   0  0  0  0  0  0  0  0  0  0  0  0
    2.1359   -0.0279    0.0000 C   0  0  0  0  0  0  0  0  0  0  0  0
   -2.1544   -0.8822    0.0000 C   0  0  0  0  0  0  0  0  0  0  0  0
    2.1359   -0.8636    0.0000 C   0  0  0  0  0  0  0  0  0  0  0  0
   -0.7057    1.5879    0.0000 C   0  0  0  0  0  0  0  0  0  0  0  0
    0.7057    1.5879    0.0000 C   0  0  0  0  0  0  0  0  0  0  0  0
    0.0000    2.0151    0.0000 C   0  0  0  0  0  0  0  0  0  0  0  0
  1 29  1  0
  1 55  1  0
  2 30  1  0
  2 56  1  0
  3 33  1  0
  3 57  1  0
  4 34  1  0
  4 58  1  0
  5 47  1  0
  5 61  1  0
  6 48  1  0
  6 62  1  0
  7 49  1  0
  7 63  1  0
  8 50  1  0
  8 64  1  0
  9 51  1  0
  9 59  1  0
 10 52  1  0
 10 60  1  0
 11 51  2  0
 12 52  2  0
 13 15  1  0
 13 21  1  0
 13 35  1  0
 13 40  1  0
 14 16  1  0
 14 22  1  0
 14 36  1  0
 14 39  1  0
 15 17  1  0
 15 27  1  0
 16 18  1  0
 16 28  1  0
 17 19  2  0
 17 23  1  0
 18 20  2  0
 18 24  1  0
 19 25  1  0
 19 31  1  0
 20 26  1  0
 20 32  1  0
 21 25  1  0
 22 26  1  0
 23 29  2  0
 24 30  2  0
 27 37  1  0
 28 38  1  0
 29 33  1  0
 30 34  1  0
 31 33  2  0
 32 34  2  0
 35 41  1  0
 36 42  1  0
 37 43  2  0
 37 45  1  0
 38 44  2  0
 38 46  1  0
 41 51  1  0
 42 52  1  0
 43 47  1  0
 44 48  1  0
 45 53  2  0
 46 54  2  0
 47 49  2  0
 48 50  2  0
 49 53  1  0
 50 54  1  0
 59 65  1  0
 60 66  1  0
 65 67  1  0
 66 67  1  0
M  CHG  2  13   1  14   1
M  END
$$$$
