
     RDKit          2D

 25 27  0  0  0  0  0  0  0  0999 V2000
    7.2598    0.4956    0.0000 S   0  0  0  0  0  0  0  0  0  0  0  0
    3.6012    0.0785    0.0000 O   0  0  0  0  0  0  0  0  0  0  0  0
    8.0988    2.4586    0.0000 O   0  0  0  0  0  0  0  0  0  0  0  0
    8.4024   -0.4296    0.0000 O   0  0  0  0  0  0  0  0  0  0  0  0
    1.4577    0.4910    0.0000 N   0  0  0  0  0  0  0  0  0  0  0  0
    8.4793    1.0385    0.0000 N   0  0  0  0  0  0  0  0  0  0  0  0
    0.0287    0.4910    0.0000 N   0  0  0  0  0  0  0  0  0  0  0  0
    7.1736    1.3160    0.0000 C   0  0  0  0  0  0  0  0  0  0  0  0
    6.4591    1.7285    0.0000 C   0  0  0  0  0  0  0  0  0  0  0  0
    5.7447    1.3160    0.0000 C   0  0  0  0  0  0  0  0  0  0  0  0
    7.9273    1.6516    0.0000 C   0  0  0  0  0  0  0  0  0  0  0  0
    2.1722    0.0785    0.0000 C   0  0  0  0  0  0  0  0  0  0  0  0
    5.7447    0.4910    0.0000 C   0  0  0  0  0  0  0  0  0  0  0  0
    5.0302    1.7286    0.0000 C   0  0  0  0  0  0  0  0  0  0  0  0
    2.8867    0.4910    0.0000 C   0  0  0  0  0  0  0  0  0  0  0  0
    4.3156    0.4910    0.0000 C   0  0  0  0  0  0  0  0  0  0  0  0
    5.0301    0.0785    0.0000 C   0  0  0  0  0  0  0  0  0  0  0  0
    4.3156    1.3160    0.0000 C   0  0  0  0  0  0  0  0  0  0  0  0
    8.0668    0.3240    0.0000 C   0  0  0  0  0  0  0  0  0  0  0  0
    0.7433    0.0785    0.0000 C   0  0  0  0  0  0  0  0  0  0  0  0
    1.4577    1.3161    0.0000 C   0  0  0  0  0  0  0  0  0  0  0  0
    0.7432   -0.7464    0.0000 C   0  0  0  0  0  0  0  0  0  0  0  0
    0.0287   -1.1589    0.0000 C   0  0  0  0  0  0  0  0  0  0  0  0
   -0.6857    0.0785    0.0000 C   0  0  0  0  0  0  0  0  0  0  0  0
   -0.6857   -0.7464    0.0000 C   0  0  0  0  0  0  0  0  0  0  0  0
  1  8  1  0
  1 19  1  0
  2 15  1  0
  2 16  1  0
  3 11  2  0
  4 19  2  0
  5 12  1  0
  5 20  1  0
  5 21  1  0
  6 11  1  0
  6 19  1  0
  7 20  2  0
  7 24  1  0
  8  9  1  0
  8 11  1  0
  9 10  1  0
 10 13  2  0
 10 14  1  0
 12 15  1  0
 13 17  1  0
 14 18  2  0
 16 17  2  0
 16 18  1  0
 20 22  1  0
 22 23  2  0
 23 25  1  0
 24 25  2  0
M  END
$$$$
