716
     RDKit          2D

 27 29  0  0  0  0  0  0  0  0999 V2000
    4.2684    0.2492    0.0000 O   0  0  0  0  0  0  0  0  0  0  0  0
    7.1628   -2.2830    0.0000 O   0  0  0  0  0  0  0  0  0  0  0  0
    4.2780   -2.2830    0.0000 O   0  0  0  0  0  0  0  0  0  0  0  0
    9.3488   -0.1693    0.0000 O   0  0  0  0  0  0  0  0  0  0  0  0
    8.6296    1.0654    0.0000 O   0  0  0  0  0  0  0  0  0  0  0  0
    2.0920   -0.1693    0.0000 O   0  0  0  0  0  0  0  0  0  0  0  0
    2.8112    1.0654    0.0000 O   0  0  0  0  0  0  0  0  0  0  0  0
    7.1724    0.2492    0.0000 N   0  0  0  0  0  0  0  0  0  0  0  0
    6.4348   -0.1920    0.0000 C   0  0  0  0  0  0  0  0  0  0  0  0
    5.7204    0.2205    0.0000 C   0  0  0  0  0  0  0  0  0  0  0  0
    6.4348   -1.0170    0.0000 C   0  0  0  0  0  0  0  0  0  0  0  0
    5.7204    1.0455    0.0000 C   0  0  0  0  0  0  0  0  0  0  0  0
    5.0059   -0.1920    0.0000 C   0  0  0  0  0  0  0  0  0  0  0  0
    5.0059   -1.0170    0.0000 C   0  0  0  0  0  0  0  0  0  0  0  0
    5.7204   -1.4295    0.0000 C   0  0  0  0  0  0  0  0  0  0  0  0
    7.1628    1.0741    0.0000 C   0  0  0  0  0  0  0  0  0  0  0  0
    7.9198   -0.1748    0.0000 C   0  0  0  0  0  0  0  0  0  0  0  0
    5.0059    1.4580    0.0000 C   0  0  0  0  0  0  0  0  0  0  0  0
    7.1724   -1.4581    0.0000 C   0  0  0  0  0  0  0  0  0  0  0  0
    7.9198   -1.0341    0.0000 C   0  0  0  0  0  0  0  0  0  0  0  0
    4.2684   -1.4581    0.0000 C   0  0  0  0  0  0  0  0  0  0  0  0
    7.8725    1.4948    0.0000 C   0  0  0  0  0  0  0  0  0  0  0  0
    5.0059    2.2830    0.0000 C   0  0  0  0  0  0  0  0  0  0  0  0
    3.5209   -0.1748    0.0000 C   0  0  0  0  0  0  0  0  0  0  0  0
    3.5209   -1.0341    0.0000 C   0  0  0  0  0  0  0  0  0  0  0  0
    8.6327    0.2404    0.0000 C   0  0  0  0  0  0  0  0  0  0  0  0
    2.8081    0.2404    0.0000 C   0  0  0  0  0  0  0  0  0  0  0  0
  1 13  1  0
  1 24  1  0
  2 19  2  0
  3 21  2  0
  4 26  1  0
  5 26  2  0
  6 27  1  0
  7 27  2  0
  8  9  1  0
  8 16  1  0
  8 17  1  0
  9 10  1  0
  9 11  2  0
 10 12  1  0
 10 13  2  0
 11 15  1  0
 11 19  1  0
 12 18  1  0
 13 14  1  0
 14 15  2  0
 14 21  1  0
 16 22  1  0
 17 20  2  0
 17 26  1  0
 18 23  1  0
 19 20  1  0
 21 25  1  0
 24 25  2  0
 24 27  1  0
M  END
$$$$
