594
     RDKit          2D

 15 15  0  0  0  0  0  0  0  0999 V2000
    6.3799   -0.0784    0.0000 Cl  0  0  0  0  0  0  0  0  0  0  0  0
    2.8075   -0.4909    0.0000 O   0  0  0  0  0  0  0  0  0  0  0  0
    4.9509   -1.7284    0.0000 N   0  0  0  0  0  0  0  0  0  0  0  0
    4.9509   -0.0784    0.0000 N   0  0  0  0  0  0  0  0  0  0  0  0
    3.5220   -1.7284    0.0000 N   0  0  0  0  0  0  0  0  0  0  0  0
    3.5220    0.7466    0.0000 N   0  0  0  0  0  0  0  0  0  0  0  0
    6.3799   -1.7284    0.0000 N   0  0  0  0  0  0  0  0  0  0  0  0
    2.8075    1.9842    0.0000 N   0  0  0  0  0  0  0  0  0  0  0  0
    2.0930    0.7466    0.0000 N   0  0  0  0  0  0  0  0  0  0  0  0
    4.2365   -0.4909    0.0000 C   0  0  0  0  0  0  0  0  0  0  0  0
    4.2365   -1.3159    0.0000 C   0  0  0  0  0  0  0  0  0  0  0  0
    5.6655   -1.3159    0.0000 C   0  0  0  0  0  0  0  0  0  0  0  0
    5.6655   -0.4909    0.0000 C   0  0  0  0  0  0  0  0  0  0  0  0
    3.5220   -0.0784    0.0000 C   0  0  0  0  0  0  0  0  0  0  0  0
    2.8075    1.1592    0.0000 C   0  0  0  0  0  0  0  0  0  0  0  0
  1 13  1  0
  2 14  2  0
  3 11  2  0
  3 12  1  0
  4 10  2  0
  4 13  1  0
  5 11  1  0
  6 14  1  0
  6 15  2  0
  7 12  1  0
  8 15  1  0
  9 15  1  0
 10 11  1  0
 10 14  1  0
 12 13  2  0
M  END
$$$$
