843
     RDKit          2D

 28 31  0  0  1  0  0  0  0  0999 V2000
    4.8305    2.4093    0.0000 O   0  0  0  0  0  0  0  0  0  0  0  0
    1.6500    0.1362    0.0000 O   0  0  0  0  0  0  0  0  0  0  0  0
    1.6500    1.7862    0.0000 O   0  0  0  0  0  0  0  0  0  0  0  0
    7.1182   -1.1823    0.0000 N   0  0  0  0  0  0  0  0  0  0  0  0
    6.2932    0.2467    0.0000 C   0  0  0  0  0  0  0  0  0  0  0  0
    5.8806    0.9612    0.0000 C   0  0  0  0  0  0  0  0  0  0  0  0
    5.0556    0.9612    0.0000 C   0  0  0  0  0  0  0  0  0  0  0  0
    7.1182    0.2467    0.0000 C   0  0  0  0  0  0  0  0  0  0  0  0
    5.8806   -0.4678    0.0000 C   0  0  0  0  0  0  0  0  0  0  0  0
    7.5307   -0.4678    0.0000 C   0  0  0  0  0  0  0  0  0  0  0  0
    6.2932   -1.1823    0.0000 C   0  0  0  0  0  0  0  0  0  0  0  0
    4.5741    0.2973    0.0000 C   0  0  0  0  0  0  0  0  0  0  0  0
    4.5741    1.6251    0.0000 C   0  0  0  0  0  0  0  0  0  0  0  0
    3.7935    0.5487    0.0000 C   0  0  0  0  0  0  0  0  0  0  0  0
    3.7935    1.3737    0.0000 C   0  0  0  0  0  0  0  0  0  0  0  0
    7.5307   -1.8967    0.0000 C   0  0  0  0  0  0  0  0  0  0  0  0
    3.0791    0.1362    0.0000 C   0  0  0  0  0  0  0  0  0  0  0  0
    3.0791    1.7862    0.0000 C   0  0  0  0  0  0  0  0  0  0  0  0
    8.3557   -1.8967    0.0000 C   0  0  0  0  0  0  0  0  0  0  0  0
    2.3645    0.5487    0.0000 C   0  0  0  0  0  0  0  0  0  0  0  0
    2.3645    1.3737    0.0000 C   0  0  0  0  0  0  0  0  0  0  0  0
    8.7682   -1.1823    0.0000 C   0  0  0  0  0  0  0  0  0  0  0  0
    8.7682   -2.6113    0.0000 C   0  0  0  0  0  0  0  0  0  0  0  0
    9.5932   -1.1823    0.0000 C   0  0  0  0  0  0  0  0  0  0  0  0
    9.5932   -2.6113    0.0000 C   0  0  0  0  0  0  0  0  0  0  0  0
   10.0057   -1.8967    0.0000 C   0  0  0  0  0  0  0  0  0  0  0  0
    1.6500   -0.6888    0.0000 C   0  0  0  0  0  0  0  0  0  0  0  0
    1.6500    2.6113    0.0000 C   0  0  0  0  0  0  0  0  0  0  0  0
  1 13  2  0
  2 20  1  0
  2 27  1  0
  3 21  1  0
  3 28  1  0
  4 10  1  0
  4 11  1  0
  4 16  1  0
  5  6  1  0
  5  8  1  0
  5  9  1  0
  6  7  1  0
  7 12  1  0
  7 13  1  0
  8 10  1  0
  9 11  1  0
 12 14  1  0
 13 15  1  0
 14 15  2  0
 14 17  1  0
 15 18  1  0
 16 19  1  0
 17 20  2  0
 18 21  2  0
 19 22  2  0
 19 23  1  0
 20 21  1  0
 22 24  1  0
 23 25  2  0
 24 26  2  0
 25 26  1  0
M  END
$$$$
