909
     RDKit          2D

 14 15  0  0  0  0  0  0  0  0999 V2000
    4.9232    0.8180    0.0000 S   0  0  0  0  0  0  0  0  0  0  0  0
    3.8596   -1.4641    0.0000 O   0  0  0  0  0  0  0  0  0  0  0  0
    4.7530    1.6253    0.0000 O   0  0  0  0  0  0  0  0  0  0  0  0
    5.0934    0.0107    0.0000 O   0  0  0  0  0  0  0  0  0  0  0  0
    4.3411   -0.8003    0.0000 N   0  0  0  0  0  0  0  0  0  0  0  0
    5.7304    0.9881    0.0000 N   0  0  0  0  0  0  0  0  0  0  0  0
    4.1159    0.6479    0.0000 C   0  0  0  0  0  0  0  0  0  0  0  0
    3.8596   -0.1364    0.0000 C   0  0  0  0  0  0  0  0  0  0  0  0
    3.0790   -0.3878    0.0000 C   0  0  0  0  0  0  0  0  0  0  0  0
    3.0790   -1.2128    0.0000 C   0  0  0  0  0  0  0  0  0  0  0  0
    2.3645    0.0248    0.0000 C   0  0  0  0  0  0  0  0  0  0  0  0
    2.3645   -1.6253    0.0000 C   0  0  0  0  0  0  0  0  0  0  0  0
    1.6500   -0.3878    0.0000 C   0  0  0  0  0  0  0  0  0  0  0  0
    1.6500   -1.2128    0.0000 C   0  0  0  0  0  0  0  0  0  0  0  0
  1  3  2  0
  1  4  2  0
  1  6  1  0
  1  7  1  0
  2  5  1  0
  2 10  1  0
  5  8  2  0
  7  8  1  0
  8  9  1  0
  9 10  2  0
  9 11  1  0
 10 12  1  0
 11 13  2  0
 12 14  2  0
 13 14  1  0
M  END
$$$$
