790
     RDKit          2D

 26 27  0  0  1  0  0  0  0  0999 V2000
    5.4686   -1.0977    0.0000 O   0  0  0  0  0  0  0  0  0  0  0  0
    6.1240   -3.4305    0.0000 O   0  0  0  0  0  0  0  0  0  0  0  0
    6.1240   -2.0015    0.0000 O   0  0  0  0  0  0  0  0  0  0  0  0
    3.5210    2.1428    0.0000 O   0  0  0  0  0  0  0  0  0  0  0  0
    4.8792    1.6988    0.0000 O   0  0  0  0  0  0  0  0  0  0  0  0
    4.4050   -2.0521    0.0000 N   0  0  0  0  0  0  0  0  0  0  0  0
    4.3666    0.1304    0.0000 N   0  0  0  0  0  0  0  0  0  0  0  0
    3.6243   -3.1285    0.0000 C   0  0  0  0  0  0  0  0  0  0  0  0
    3.6243   -2.3035    0.0000 C   0  0  0  0  0  0  0  0  0  0  0  0
    4.4050   -3.3799    0.0000 C   0  0  0  0  0  0  0  0  0  0  0  0
    4.8865   -2.7160    0.0000 C   0  0  0  0  0  0  0  0  0  0  0  0
    2.9099   -3.5410    0.0000 C   0  0  0  0  0  0  0  0  0  0  0  0
    2.9099   -1.8910    0.0000 C   0  0  0  0  0  0  0  0  0  0  0  0
    2.1953   -3.1285    0.0000 C   0  0  0  0  0  0  0  0  0  0  0  0
    2.1953   -2.3035    0.0000 C   0  0  0  0  0  0  0  0  0  0  0  0
    4.6613   -1.2679    0.0000 C   0  0  0  0  0  0  0  0  0  0  0  0
    5.7115   -2.7160    0.0000 C   0  0  0  0  0  0  0  0  0  0  0  0
    4.1103   -0.6538    0.0000 C   0  0  0  0  0  0  0  0  0  0  0  0
    3.3030   -0.8240    0.0000 C   0  0  0  0  0  0  0  0  0  0  0  0
    3.8157    0.7445    0.0000 C   0  0  0  0  0  0  0  0  0  0  0  0
    3.0083    0.5743    0.0000 C   0  0  0  0  0  0  0  0  0  0  0  0
    4.0719    1.5287    0.0000 C   0  0  0  0  0  0  0  0  0  0  0  0
    2.4573    1.1884    0.0000 C   0  0  0  0  0  0  0  0  0  0  0  0
    1.6501    1.0182    0.0000 C   0  0  0  0  0  0  0  0  0  0  0  0
    3.7772    2.9269    0.0000 C   0  0  0  0  0  0  0  0  0  0  0  0
    3.2263    3.5410    0.0000 C   0  0  0  0  0  0  0  0  0  0  0  0
  1 16  2  0
  2 17  1  0
  3 17  2  0
  4 22  1  0
  4 25  1  0
  5 22  2  0
  6  9  1  0
  6 11  1  0
  6 16  1  0
 18  7  1  0
 20  7  1  0
  8  9  1  0
  8 10  1  6
  8 12  1  0
  9 13  1  6
 10 11  1  0
 11 17  1  6
 12 14  1  0
 13 15  1  0
 14 15  1  0
 16 18  1  0
 18 19  1  6
 20 21  1  1
 20 22  1  0
 21 23  1  0
 23 24  1  0
 25 26  1  0
M  END
$$$$
