378
     RDKit          2D

 23 26  0  0  1  0  0  0  0  0999 V2000
    6.5848    2.1027    0.0000 O   0  0  0  0  0  0  0  0  0  0  0  0
    1.6499   -2.0649    0.0000 O   0  0  0  0  0  0  0  0  0  0  0  0
    6.0989    0.4532    0.0000 C   0  0  0  0  0  0  0  0  0  0  0  0
    6.0989   -0.3718    0.0000 C   0  0  0  0  0  0  0  0  0  0  0  0
    5.3846   -0.7843    0.0000 C   0  0  0  0  0  0  0  0  0  0  0  0
    4.6700   -0.3718    0.0000 C   0  0  0  0  0  0  0  0  0  0  0  0
    6.8795    0.7046    0.0000 C   0  0  0  0  0  0  0  0  0  0  0  0
    5.3846    0.8656    0.0000 C   0  0  0  0  0  0  0  0  0  0  0  0
    6.8795   -0.6232    0.0000 C   0  0  0  0  0  0  0  0  0  0  0  0
    4.6700    0.4532    0.0000 C   0  0  0  0  0  0  0  0  0  0  0  0
    3.9194   -0.7899    0.0000 C   0  0  0  0  0  0  0  0  0  0  0  0
    7.3609    0.0407    0.0000 C   0  0  0  0  0  0  0  0  0  0  0  0
    6.0989    1.2781    0.0000 C   0  0  0  0  0  0  0  0  0  0  0  0
    5.3978   -1.6435    0.0000 C   0  0  0  0  0  0  0  0  0  0  0  0
    3.9128   -1.6492    0.0000 C   0  0  0  0  0  0  0  0  0  0  0  0
    3.1548   -0.3246    0.0000 C   0  0  0  0  0  0  0  0  0  0  0  0
    7.1359    1.4887    0.0000 C   0  0  0  0  0  0  0  0  0  0  0  0
    3.9257    0.0350    0.0000 C   0  0  0  0  0  0  0  0  0  0  0  0
    4.6569   -2.0789    0.0000 C   0  0  0  0  0  0  0  0  0  0  0  0
    2.3728   -0.7602    0.0000 C   0  0  0  0  0  0  0  0  0  0  0  0
    3.1411   -2.1027    0.0000 C   0  0  0  0  0  0  0  0  0  0  0  0
    2.3659   -1.6552    0.0000 C   0  0  0  0  0  0  0  0  0  0  0  0
    7.9430    1.6588    0.0000 C   0  0  0  0  0  0  0  0  0  0  0  0
  1 17  2  0
  2 22  2  0
  3  4  1  0
  3  7  1  0
  3  8  1  0
  3 13  1  1
  4  5  1  0
  4  9  1  1
  5  6  1  0
  5 14  1  6
  6 10  1  6
  6 11  1  0
  7 12  1  0
  7 17  1  1
  8 10  1  0
  9 12  1  0
 11 15  1  0
 11 16  1  0
 11 18  1  6
 14 19  2  0
 15 19  1  0
 15 21  2  0
 16 20  1  0
 17 23  1  0
 20 22  1  0
 21 22  1  0
M  END
$$$$
