5282443
     RDKit          2D

 21 23  0  0  0  0  0  0  0  0999 V2000
    2.9558    1.2375    0.0000 N   0  0  0  0  0  0  0  0  0  0  0  0
    6.5282    0.8250    0.0000 N   0  0  0  0  0  0  0  0  0  0  0  0
    2.8696    2.0580    0.0000 C   0  0  0  0  0  0  0  0  0  0  0  0
    2.2021    0.9020    0.0000 C   0  0  0  0  0  0  0  0  0  0  0  0
    1.6500    1.5151    0.0000 C   0  0  0  0  0  0  0  0  0  0  0  0
    2.0625    2.2295    0.0000 C   0  0  0  0  0  0  0  0  0  0  0  0
    3.6703    0.8250    0.0000 C   0  0  0  0  0  0  0  0  0  0  0  0
    4.3847    1.2375    0.0000 C   0  0  0  0  0  0  0  0  0  0  0  0
    5.0993    0.8250    0.0000 C   0  0  0  0  0  0  0  0  0  0  0  0
    5.0993    0.0000    0.0000 C   0  0  0  0  0  0  0  0  0  0  0  0
    5.8137    1.2375    0.0000 C   0  0  0  0  0  0  0  0  0  0  0  0
    5.8137   -0.4125    0.0000 C   0  0  0  0  0  0  0  0  0  0  0  0
    4.3847   -0.4125    0.0000 C   0  0  0  0  0  0  0  0  0  0  0  0
    5.8137    2.0625    0.0000 C   0  0  0  0  0  0  0  0  0  0  0  0
    5.0993   -1.6500    0.0000 C   0  0  0  0  0  0  0  0  0  0  0  0
    5.8137   -1.2375    0.0000 C   0  0  0  0  0  0  0  0  0  0  0  0
    4.3847   -1.2375    0.0000 C   0  0  0  0  0  0  0  0  0  0  0  0
    6.5282    2.4751    0.0000 C   0  0  0  0  0  0  0  0  0  0  0  0
    5.0993   -2.4751    0.0000 C   0  0  0  0  0  0  0  0  0  0  0  0
    7.2427    1.2375    0.0000 C   0  0  0  0  0  0  0  0  0  0  0  0
    7.2427    2.0625    0.0000 C   0  0  0  0  0  0  0  0  0  0  0  0
  1  3  1  0
  1  4  1  0
  1  7  1  0
  2 11  2  0
  2 20  1  0
  3  6  1  0
  4  5  1  0
  5  6  1  0
  7  8  1  0
  8  9  2  0
  9 10  1  0
  9 11  1  0
 10 12  2  0
 10 13  1  0
 11 14  1  0
 12 16  1  0
 13 17  2  0
 14 18  2  0
 15 16  2  0
 15 17  1  0
 15 19  1  0
 18 21  1  0
 20 21  2  0
M  END
$$$$
