242
     RDKit          2D

 19 21  0  0  1  0  0  0  0  0999 V2000
    1.6500   -0.5556    0.0000 Cl  0  0  0  0  0  0  0  0  0  0  0  0
    4.3467    0.7358    0.0000 O   0  0  0  0  0  0  0  0  0  0  0  0
    6.2852    1.6299    0.0000 O   0  0  0  0  0  0  0  0  0  0  0  0
    5.1323    2.7996    0.0000 O   0  0  0  0  0  0  0  0  0  0  0  0
    4.5741   -0.7167    0.0000 N   0  0  0  0  0  0  0  0  0  0  0  0
    4.5741   -2.0446    0.0000 N   0  0  0  0  0  0  0  0  0  0  0  0
    3.0791   -0.5556    0.0000 N   0  0  0  0  0  0  0  0  0  0  0  0
    2.3645   -1.7931    0.0000 N   0  0  0  0  0  0  0  0  0  0  0  0
    3.0791   -3.0306    0.0000 N   0  0  0  0  0  0  0  0  0  0  0  0
    4.8305    0.0675    0.0000 C   0  0  0  0  0  0  0  0  0  0  0  0
    5.6170    1.1461    0.0000 C   0  0  0  0  0  0  0  0  0  0  0  0
    5.6155    0.3211    0.0000 C   0  0  0  0  0  0  0  0  0  0  0  0
    4.8328    1.4024    0.0000 C   0  0  0  0  0  0  0  0  0  0  0  0
    4.5792    2.1875    0.0000 C   0  0  0  0  0  0  0  0  0  0  0  0
    3.7935   -0.9681    0.0000 C   0  0  0  0  0  0  0  0  0  0  0  0
    5.0556   -1.3806    0.0000 C   0  0  0  0  0  0  0  0  0  0  0  0
    3.7935   -1.7931    0.0000 C   0  0  0  0  0  0  0  0  0  0  0  0
    3.0791   -2.2056    0.0000 C   0  0  0  0  0  0  0  0  0  0  0  0
    2.3645   -0.9681    0.0000 C   0  0  0  0  0  0  0  0  0  0  0  0
  1 19  1  0
  2 10  1  0
  2 13  1  0
 11  3  1  1
  4 14  1  0
 10  5  1  6
  5 15  1  0
  5 16  1  0
  6 16  2  0
  6 17  1  0
  7 15  1  0
  7 19  2  0
  8 18  2  0
  8 19  1  0
  9 18  1  0
 10 12  1  0
 11 12  1  0
 11 13  1  0
 13 14  1  6
 15 17  2  0
 17 18  1  0
M  END
$$$$
