409
     RDKit          2D

 22 23  0  0  1  0  0  0  0  0999 V2000
    2.3645   -2.5585    0.0000 Br  0  0  0  0  0  0  0  0  0  0  0  0
    3.0791    0.3290    0.0000 O   0  0  0  0  0  0  0  0  0  0  0  0
    2.3645   -0.9085    0.0000 O   0  0  0  0  0  0  0  0  0  0  0  0
    5.2224   -0.9085    0.0000 O   0  0  0  0  0  0  0  0  0  0  0  0
    5.9762    1.2309    0.0000 N   0  0  0  0  0  0  0  0  0  0  0  0
    4.5080    0.3290    0.0000 N   0  0  0  0  0  0  0  0  0  0  0  0
    5.2224    1.5665    0.0000 C   0  0  0  0  0  0  0  0  0  0  0  0
    5.3087    2.3870    0.0000 C   0  0  0  0  0  0  0  0  0  0  0  0
    6.1157    2.5585    0.0000 C   0  0  0  0  0  0  0  0  0  0  0  0
    6.5282    1.8441    0.0000 C   0  0  0  0  0  0  0  0  0  0  0  0
    4.5080    1.1540    0.0000 C   0  0  0  0  0  0  0  0  0  0  0  0
    6.1477    0.4240    0.0000 C   0  0  0  0  0  0  0  0  0  0  0  0
    6.9323    0.1690    0.0000 C   0  0  0  0  0  0  0  0  0  0  0  0
    3.7935   -0.0835    0.0000 C   0  0  0  0  0  0  0  0  0  0  0  0
    3.7935   -0.9085    0.0000 C   0  0  0  0  0  0  0  0  0  0  0  0
    3.0791   -1.3210    0.0000 C   0  0  0  0  0  0  0  0  0  0  0  0
    4.5080   -1.3210    0.0000 C   0  0  0  0  0  0  0  0  0  0  0  0
    3.0791   -2.1460    0.0000 C   0  0  0  0  0  0  0  0  0  0  0  0
    4.5080   -2.1460    0.0000 C   0  0  0  0  0  0  0  0  0  0  0  0
    3.7935   -2.5585    0.0000 C   0  0  0  0  0  0  0  0  0  0  0  0
    1.6500   -1.3210    0.0000 C   0  0  0  0  0  0  0  0  0  0  0  0
    5.9370   -1.3210    0.0000 C   0  0  0  0  0  0  0  0  0  0  0  0
  1 18  1  0
  2 14  2  0
  3 16  1  0
  3 21  1  0
  4 17  1  0
  4 22  1  0
  5  7  1  0
  5 10  1  0
  5 12  1  0
  6 11  1  0
  6 14  1  0
  7  8  1  0
  7 11  1  6
  8  9  1  0
  9 10  1  0
 12 13  1  0
 14 15  1  0
 15 16  2  0
 15 17  1  0
 16 18  1  0
 17 19  2  0
 18 20  2  0
 19 20  1  0
M  END
$$$$
