6323481
     RDKit          2D

 25 24  0  0  1  0  0  0  0  0999 V2000
    7.3659    1.1096    0.0000 P   0  0  0  0  0  0  0  0  0  0  0  0
    4.5080    1.1096    0.0000 O   0  0  0  0  0  0  0  0  0  0  0  0
    6.6515    0.6971    0.0000 O   0  0  0  0  0  0  0  0  0  0  0  0
    4.5080   -0.5404    0.0000 O   0  0  0  0  0  0  0  0  0  0  0  0
    8.0804    1.5222    0.0000 O   0  0  0  0  0  0  0  0  0  0  0  0
    6.9534    1.8241    0.0000 O   0  0  0  0  0  0  0  0  0  0  0  0
    7.7784    0.3952    0.0000 O   0  0  0  0  0  0  0  0  0  0  0  0
    3.7935   -0.1279    0.0000 O   0  0  0  0  0  0  0  0  0  0  0  0
    5.2224   -1.7779    0.0000 O   0  0  0  0  0  0  0  0  0  0  0  0
   10.9383    1.5222    0.0000 O   0  0  0  0  0  0  0  0  0  0  0  0
   10.2239    0.2846    0.0000 O   0  0  0  0  0  0  0  0  0  0  0  0
    9.5094    2.3472    0.0000 N   0  0  0  0  0  0  0  0  0  0  0  0
    5.2224    0.6971    0.0000 C   0  0  0  0  0  0  0  0  0  0  0  0
    5.9370    1.1096    0.0000 C   0  0  0  0  0  0  0  0  0  0  0  0
    5.2224   -0.1279    0.0000 C   0  0  0  0  0  0  0  0  0  0  0  0
    3.0790    1.1096    0.0000 C   0  0  0  0  0  0  0  0  0  0  0  0
    3.7935    0.6971    0.0000 C   0  0  0  0  0  0  0  0  0  0  0  0
    2.3645    0.6971    0.0000 C   0  0  0  0  0  0  0  0  0  0  0  0
    8.7949    1.1096    0.0000 C   0  0  0  0  0  0  0  0  0  0  0  0
    9.5094    1.5222    0.0000 C   0  0  0  0  0  0  0  0  0  0  0  0
    1.6500    1.1096    0.0000 C   0  0  0  0  0  0  0  0  0  0  0  0
    4.5080   -1.3654    0.0000 C   0  0  0  0  0  0  0  0  0  0  0  0
    3.7935   -1.7779    0.0000 C   0  0  0  0  0  0  0  0  0  0  0  0
   10.2239    1.1096    0.0000 C   0  0  0  0  0  0  0  0  0  0  0  0
    3.7935   -2.6029    0.0000 C   0  0  0  0  0  0  0  0  0  0  0  0
  1  3  1  0
  1  5  1  0
  1  6  1  0
  1  7  2  0
 13  2  1  0
  2 17  1  0
  3 14  1  0
  4 15  1  0
  4 22  1  0
  5 19  1  0
  8 17  2  0
  9 22  2  0
 10 24  1  0
 11 24  2  0
 20 12  1  6
 13 14  1  1
 13 15  1  0
 16 17  1  0
 16 18  1  0
 18 21  1  0
 19 20  1  0
 20 24  1  0
 22 23  1  0
 23 25  1  0
M  END
$$$$
