973
     RDKit          2D

 30 33  0  0  1  0  0  0  0  0999 V2000
    1.6500    0.2834    0.0000 F   0  0  0  0  0  0  0  0  0  0  0  0
    9.8294    3.8558    0.0000 F   0  0  0  0  0  0  0  0  0  0  0  0
    5.5335    1.6918    0.0000 O   0  0  0  0  0  0  0  0  0  0  0  0
    8.5919    0.2834    0.0000 O   0  0  0  0  0  0  0  0  0  0  0  0
    5.5335   -3.6000    0.0000 O   0  0  0  0  0  0  0  0  0  0  0  0
    4.9501    0.2834    0.0000 N   0  0  0  0  0  0  0  0  0  0  0  0
    6.1168    0.2834    0.0000 C   0  0  0  0  0  0  0  0  0  0  0  0
    5.5335   -0.3000    0.0000 C   0  0  0  0  0  0  0  0  0  0  0  0
    6.9419    0.2834    0.0000 C   0  0  0  0  0  0  0  0  0  0  0  0
    5.5335    0.8668    0.0000 C   0  0  0  0  0  0  0  0  0  0  0  0
    5.5335   -1.1250    0.0000 C   0  0  0  0  0  0  0  0  0  0  0  0
    7.3544    0.9979    0.0000 C   0  0  0  0  0  0  0  0  0  0  0  0
    4.1251    0.2834    0.0000 C   0  0  0  0  0  0  0  0  0  0  0  0
    8.1794    0.9979    0.0000 C   0  0  0  0  0  0  0  0  0  0  0  0
    6.2479   -1.5375    0.0000 C   0  0  0  0  0  0  0  0  0  0  0  0
    4.8190   -1.5375    0.0000 C   0  0  0  0  0  0  0  0  0  0  0  0
    3.7126   -0.4311    0.0000 C   0  0  0  0  0  0  0  0  0  0  0  0
    3.7126    0.9979    0.0000 C   0  0  0  0  0  0  0  0  0  0  0  0
    8.5919    1.7123    0.0000 C   0  0  0  0  0  0  0  0  0  0  0  0
    6.2479   -2.3625    0.0000 C   0  0  0  0  0  0  0  0  0  0  0  0
    4.8190   -2.3625    0.0000 C   0  0  0  0  0  0  0  0  0  0  0  0
    5.5335   -2.7750    0.0000 C   0  0  0  0  0  0  0  0  0  0  0  0
    2.8876   -0.4311    0.0000 C   0  0  0  0  0  0  0  0  0  0  0  0
    2.8876    0.9979    0.0000 C   0  0  0  0  0  0  0  0  0  0  0  0
    8.1794    2.4269    0.0000 C   0  0  0  0  0  0  0  0  0  0  0  0
    9.4169    1.7123    0.0000 C   0  0  0  0  0  0  0  0  0  0  0  0
    2.4751    0.2834    0.0000 C   0  0  0  0  0  0  0  0  0  0  0  0
    8.5919    3.1413    0.0000 C   0  0  0  0  0  0  0  0  0  0  0  0
    9.8294    2.4269    0.0000 C   0  0  0  0  0  0  0  0  0  0  0  0
    9.4169    3.1413    0.0000 C   0  0  0  0  0  0  0  0  0  0  0  0
  1 27  1  0
  2 30  1  0
  3 10  2  0
 14  4  1  1
  5 22  1  0
  6  8  1  0
  6 10  1  0
  6 13  1  0
  7  8  1  0
  7  9  1  6
  7 10  1  0
  8 11  1  1
  9 12  1  0
 11 15  2  0
 11 16  1  0
 12 14  1  0
 13 17  2  0
 13 18  1  0
 14 19  1  0
 15 20  1  0
 16 21  2  0
 17 23  1  0
 18 24  2  0
 19 25  2  0
 19 26  1  0
 20 22  2  0
 21 22  1  0
 23 27  2  0
 24 27  1  0
 25 28  1  0
 26 29  2  0
 28 30  2  0
 29 30  1  0
M  END
$$$$
