507
     RDKit          2D

 21 22  0  0  0  0  0  0  0  0999 V2000
    4.5550    0.9959    0.0000 S   0  0  0  0  0  0  0  0  0  0  0  0
    3.0791   -1.5516    0.0000 O   0  0  0  0  0  0  0  0  0  0  0  0
    3.7935   -0.3141    0.0000 O   0  0  0  0  0  0  0  0  0  0  0  0
    2.3645   -2.7891    0.0000 O   0  0  0  0  0  0  0  0  0  0  0  0
    4.6606    3.2016    0.0000 O   0  0  0  0  0  0  0  0  0  0  0  0
    3.5045    2.3617    0.0000 O   0  0  0  0  0  0  0  0  0  0  0  0
    5.2224   -0.3141    0.0000 N   0  0  0  0  0  0  0  0  0  0  0  0
    5.8899    0.9959    0.0000 N   0  0  0  0  0  0  0  0  0  0  0  0
    4.3250    2.4480    0.0000 N   0  0  0  0  0  0  0  0  0  0  0  0
    4.5080   -1.5516    0.0000 C   0  0  0  0  0  0  0  0  0  0  0  0
    3.7935   -1.9641    0.0000 C   0  0  0  0  0  0  0  0  0  0  0  0
    4.5080   -0.7266    0.0000 C   0  0  0  0  0  0  0  0  0  0  0  0
    5.2224   -1.9641    0.0000 C   0  0  0  0  0  0  0  0  0  0  0  0
    3.7935   -2.7891    0.0000 C   0  0  0  0  0  0  0  0  0  0  0  0
    5.2224   -2.7891    0.0000 C   0  0  0  0  0  0  0  0  0  0  0  0
    5.2224    0.5109    0.0000 C   0  0  0  0  0  0  0  0  0  0  0  0
    4.5080   -3.2016    0.0000 C   0  0  0  0  0  0  0  0  0  0  0  0
    4.8099    1.7805    0.0000 C   0  0  0  0  0  0  0  0  0  0  0  0
    5.6350    1.7805    0.0000 C   0  0  0  0  0  0  0  0  0  0  0  0
    2.3645   -1.9641    0.0000 C   0  0  0  0  0  0  0  0  0  0  0  0
    1.6500   -1.5516    0.0000 C   0  0  0  0  0  0  0  0  0  0  0  0
  1 16  1  0
  1 18  1  0
  2 11  1  0
  2 20  1  0
  3 12  2  0
  4 20  2  0
  5  9  1  0
  6  9  2  0
  7 12  1  0
  7 16  1  0
  8 16  2  0
  8 19  1  0
  9 18  1  0
 10 11  2  0
 10 12  1  0
 10 13  1  0
 11 14  1  0
 13 15  2  0
 14 17  2  0
 15 17  1  0
 18 19  2  0
 20 21  1  0
M  CHG  2   5  -1   9   1
M  END
$$$$
