157
     RDKit          2D

 44 48  0  0  1  0  0  0  0  0999 V2000
    6.9922    1.8744    0.0000 P   0  0  0  0  0  0  0  0  0  0  0  0
    8.4135    2.0213    0.0000 P   0  0  0  0  0  0  0  0  0  0  0  0
    4.9010    0.4187    0.0000 O   0  0  0  0  0  0  0  0  0  0  0  0
   11.3032    2.2426    0.0000 O   0  0  0  0  0  0  0  0  0  0  0  0
    3.8647    2.2851    0.0000 O   0  0  0  0  0  0  0  0  0  0  0  0
    2.8071    0.8348    0.0000 O   0  0  0  0  0  0  0  0  0  0  0  0
   10.2050    0.4119    0.0000 O   0  0  0  0  0  0  0  0  0  0  0  0
   11.9898    0.2212    0.0000 O   0  0  0  0  0  0  0  0  0  0  0  0
    6.3238    1.3906    0.0000 O   0  0  0  0  0  0  0  0  0  0  0  0
    9.1667    1.6844    0.0000 O   0  0  0  0  0  0  0  0  0  0  0  0
    7.6604    2.3582    0.0000 O   0  0  0  0  0  0  0  0  0  0  0  0
    7.4759    1.2061    0.0000 O   0  0  0  0  0  0  0  0  0  0  0  0
    8.7504    2.7744    0.0000 O   0  0  0  0  0  0  0  0  0  0  0  0
    6.5084    2.5427    0.0000 O   0  0  0  0  0  0  0  0  0  0  0  0
    8.0766    1.2682    0.0000 O   0  0  0  0  0  0  0  0  0  0  0  0
   14.3756    0.0175    0.0000 O   0  0  0  0  0  0  0  0  0  0  0  0
    3.8597   -0.6191    0.0000 N   0  0  0  0  0  0  0  0  0  0  0  0
   12.7226    1.8597    0.0000 N   0  0  0  0  0  0  0  0  0  0  0  0
    3.8597   -1.9469    0.0000 N   0  0  0  0  0  0  0  0  0  0  0  0
    2.3645   -0.4580    0.0000 N   0  0  0  0  0  0  0  0  0  0  0  0
    1.6500   -1.6955    0.0000 N   0  0  0  0  0  0  0  0  0  0  0  0
    2.3645   -2.9330    0.0000 N   0  0  0  0  0  0  0  0  0  0  0  0
   15.4392    0.9718    0.0000 N   0  0  0  0  0  0  0  0  0  0  0  0
    4.1182    1.5000    0.0000 C   0  0  0  0  0  0  0  0  0  0  0  0
    3.6321    0.8334    0.0000 C   0  0  0  0  0  0  0  0  0  0  0  0
    4.9025    1.2437    0.0000 C   0  0  0  0  0  0  0  0  0  0  0  0
    4.1159    0.1652    0.0000 C   0  0  0  0  0  0  0  0  0  0  0  0
   10.7582    1.0241    0.0000 C   0  0  0  0  0  0  0  0  0  0  0  0
   11.5785    0.9364    0.0000 C   0  0  0  0  0  0  0  0  0  0  0  0
   10.5880    1.8314    0.0000 C   0  0  0  0  0  0  0  0  0  0  0  0
   11.9154    1.6895    0.0000 C   0  0  0  0  0  0  0  0  0  0  0  0
    5.5707    1.7275    0.0000 C   0  0  0  0  0  0  0  0  0  0  0  0
    9.8349    2.1682    0.0000 C   0  0  0  0  0  0  0  0  0  0  0  0
    3.0790   -0.8705    0.0000 C   0  0  0  0  0  0  0  0  0  0  0  0
   13.2737    1.2456    0.0000 C   0  0  0  0  0  0  0  0  0  0  0  0
    4.3411   -1.2830    0.0000 C   0  0  0  0  0  0  0  0  0  0  0  0
   12.9790    2.6438    0.0000 C   0  0  0  0  0  0  0  0  0  0  0  0
    3.0790   -1.6955    0.0000 C   0  0  0  0  0  0  0  0  0  0  0  0
   14.0809    1.4157    0.0000 C   0  0  0  0  0  0  0  0  0  0  0  0
   14.3372    2.1999    0.0000 C   0  0  0  0  0  0  0  0  0  0  0  0
   13.7862    2.8140    0.0000 C   0  0  0  0  0  0  0  0  0  0  0  0
    2.3645   -2.1080    0.0000 C   0  0  0  0  0  0  0  0  0  0  0  0
   14.6319    0.8017    0.0000 C   0  0  0  0  0  0  0  0  0  0  0  0
    1.6500   -0.8705    0.0000 C   0  0  0  0  0  0  0  0  0  0  0  0
  1  9  1  0
  1 11  1  0
  1 12  1  6
  1 14  2  0
  2 10  1  0
  2 11  1  0
  2 13  1  1
  2 15  2  0
  3 26  1  0
  3 27  1  0
  4 30  1  0
  4 31  1  0
 24  5  1  6
 25  6  1  6
 28  7  1  6
 29  8  1  6
  9 32  1  0
 10 33  1  0
 16 43  2  0
 27 17  1  1
 17 34  1  0
 17 36  1  0
 31 18  1  1
 18 35  1  0
 18 37  1  0
 19 36  2  0
 19 38  1  0
 20 34  1  0
 20 44  2  0
 21 42  2  0
 21 44  1  0
 22 42  1  0
 23 43  1  0
 24 25  1  0
 24 26  1  0
 25 27  1  0
 26 32  1  1
 28 29  1  0
 28 30  1  0
 29 31  1  0
 30 33  1  1
 34 38  2  0
 35 39  2  0
 37 41  2  0
 38 42  1  0
 39 40  1  0
 39 43  1  0
 40 41  1  0
M  END
$$$$
