 
     RDKit          2D

 23 26  0  0  0  0  0  0  0  0999 V2000
   13.5847   -8.0997    0.0000 C   0  0  0  0  0  0  0  0  0  0  0  0
   13.0879   -7.4451    0.0000 C   0  0  0  0  0  0  0  0  0  0  0  0
   13.2856   -6.6446    0.0000 C   0  0  0  0  0  0  0  0  0  0  0  0
   14.0296   -6.3036    0.0000 N   0  0  0  0  0  0  0  0  0  0  0  0
   14.4141   -8.1146    0.0000 N   0  0  0  0  0  0  0  0  0  0  0  0
   14.7692   -6.6707    0.0000 C   0  0  0  0  0  0  0  0  0  0  0  0
   14.9382   -7.4782    0.0000 C   0  0  0  0  0  0  0  0  0  0  0  0
   12.6915   -6.0733    0.0000 C   0  0  0  0  0  0  0  0  0  0  0  0
   11.8997   -6.3023    0.0000 C   0  0  0  0  0  0  0  0  0  0  0  0
   11.7020   -7.1028    0.0000 C   0  0  0  0  0  0  0  0  0  0  0  0
   12.2962   -7.6739    0.0000 C   0  0  0  0  0  0  0  0  0  0  0  0
   15.7236   -7.7361    0.0000 C   0  0  0  0  0  0  0  0  0  0  0  0
   16.3396   -7.1848    0.0000 C   0  0  0  0  0  0  0  0  0  0  0  0
   16.1706   -6.3773    0.0000 C   0  0  0  0  0  0  0  0  0  0  0  0
   15.3852   -6.1194    0.0000 C   0  0  0  0  0  0  0  0  0  0  0  0
   13.2104   -8.8370    0.0000 N   0  0  0  0  0  0  0  0  0  0  0  0
   12.3835   -8.8370    0.0000 C   0  0  0  0  0  0  0  0  0  0  0  0
   11.9700   -9.5531    0.0000 C   0  0  0  0  0  0  0  0  0  0  0  0
   12.3835  -10.2693    0.0000 N   0  0  0  0  0  0  0  0  0  0  0  0
   13.2104  -10.2693    0.0000 C   0  0  0  0  0  0  0  0  0  0  0  0
   13.6238   -9.5531    0.0000 C   0  0  0  0  0  0  0  0  0  0  0  0
   17.1389   -7.4474    0.0000 Cl  0  0  0  0  0  0  0  0  0  0  0  0
   11.9664  -10.9914    0.0000 C   0  0  0  0  0  0  0  0  0  0  0  0
  3  4  1  0
  1  5  2  0
  4  6  1  0
  2  3  2  0
  5  7  1  0
  1  2  1  0
  6  7  2  0
  3  8  1  0
  8  9  2  0
  9 10  1  0
 10 11  2  0
  2 11  1  0
  7 12  1  0
 12 13  2  0
 13 14  1  0
 14 15  2  0
  6 15  1  0
  1 16  1  0
 16 17  1  0
 17 18  1  0
 18 19  1  0
 19 20  1  0
 20 21  1  0
 16 21  1  0
 13 22  1  0
 19 23  1  0
M  END
$$$$
