178
     RDKit          2D

 30 32  0  0  1  0  0  0  0  0999 V2000
    2.8221   -1.1484    0.0000 O   0  0  0  0  0  0  0  0  0  0  0  0
    2.1616   -3.4866    0.0000 O   0  0  0  0  0  0  0  0  0  0  0  0
    2.1616   -2.0576    0.0000 O   0  0  0  0  0  0  0  0  0  0  0  0
    4.7754    2.0888    0.0000 O   0  0  0  0  0  0  0  0  0  0  0  0
    3.4163    1.6472    0.0000 O   0  0  0  0  0  0  0  0  0  0  0  0
    3.8841   -2.1046    0.0000 N   0  0  0  0  0  0  0  0  0  0  0  0
    3.9263    0.0779    0.0000 N   0  0  0  0  0  0  0  0  0  0  0  0
    4.6688   -3.1846    0.0000 C   0  0  0  0  0  0  0  0  0  0  0  0
    4.6688   -2.3595    0.0000 C   0  0  0  0  0  0  0  0  0  0  0  0
    3.8841   -3.4395    0.0000 C   0  0  0  0  0  0  0  0  0  0  0  0
    5.4495   -3.4360    0.0000 C   0  0  0  0  0  0  0  0  0  0  0  0
    5.4495   -2.1082    0.0000 C   0  0  0  0  0  0  0  0  0  0  0  0
    3.3992   -2.7721    0.0000 C   0  0  0  0  0  0  0  0  0  0  0  0
    5.9310   -2.7721    0.0000 C   0  0  0  0  0  0  0  0  0  0  0  0
    3.6292   -1.3199    0.0000 C   0  0  0  0  0  0  0  0  0  0  0  0
    2.5741   -2.7721    0.0000 C   0  0  0  0  0  0  0  0  0  0  0  0
    4.1812   -0.7068    0.0000 C   0  0  0  0  0  0  0  0  0  0  0  0
    4.9882   -0.8783    0.0000 C   0  0  0  0  0  0  0  0  0  0  0  0
    4.4783    0.6910    0.0000 C   0  0  0  0  0  0  0  0  0  0  0  0
    5.2854    0.5194    0.0000 C   0  0  0  0  0  0  0  0  0  0  0  0
    4.2234    1.4757    0.0000 C   0  0  0  0  0  0  0  0  0  0  0  0
    5.8374    1.1326    0.0000 C   0  0  0  0  0  0  0  0  0  0  0  0
    6.6444    0.9610    0.0000 C   0  0  0  0  0  0  0  0  0  0  0  0
    6.8994    0.1764    0.0000 C   0  0  0  0  0  0  0  0  0  0  0  0
    7.1965    1.5742    0.0000 C   0  0  0  0  0  0  0  0  0  0  0  0
    4.5205    2.8735    0.0000 C   0  0  0  0  0  0  0  0  0  0  0  0
    7.7064    0.0049    0.0000 C   0  0  0  0  0  0  0  0  0  0  0  0
    8.0035    1.4027    0.0000 C   0  0  0  0  0  0  0  0  0  0  0  0
    5.0725    3.4866    0.0000 C   0  0  0  0  0  0  0  0  0  0  0  0
    8.2584    0.6180    0.0000 C   0  0  0  0  0  0  0  0  0  0  0  0
  1 15  2  0
  2 16  1  0
  3 16  2  0
  4 21  1  0
  4 26  1  0
  5 21  2  0
  6  9  1  0
  6 13  1  0
  6 15  1  0
 17  7  1  0
 19  7  1  0
  8  9  1  0
  8 10  1  1
  8 11  1  0
  9 12  1  1
 10 13  1  0
 11 14  1  0
 12 14  1  0
 13 16  1  1
 15 17  1  0
 17 18  1  1
 19 20  1  6
 19 21  1  0
 20 22  1  0
 22 23  1  0
 23 24  2  0
 23 25  1  0
 24 27  1  0
 25 28  2  0
 26 29  1  0
 27 30  2  0
 28 30  1  0
M  END
$$$$
