
     RDKit          2D

 27 30  0  0  1  0  0  0  0  0999 V2000
    8.2910  -12.1560    0.0000 C   0  0  0  0  0  0  0  0  0  0  0  0
    7.5765  -12.5685    0.0000 C   0  0  0  0  0  0  0  0  0  0  0  0
    7.5765  -13.3936    0.0000 C   0  0  0  0  0  0  0  0  0  0  0  0
    8.2910  -13.8061    0.0000 C   0  0  0  0  0  0  0  0  0  0  0  0
    9.0054  -13.3936    0.0000 C   0  0  0  0  0  0  0  0  0  0  0  0
    9.0054  -12.5685    0.0000 C   0  0  0  0  0  0  0  0  0  0  0  0
    9.7199  -12.1560    0.0000 C   0  0  0  0  0  0  0  0  0  0  0  0
    9.7199  -13.8061    0.0000 C   0  0  0  0  0  0  0  0  0  0  0  0
   10.4344  -13.3936    0.0000 C   0  0  0  0  0  0  0  0  0  0  0  0
   10.4344  -12.5685    0.0000 C   0  0  0  0  0  0  0  0  0  0  0  0
   10.4344  -10.9185    0.0000 C   0  0  0  0  0  0  0  0  0  0  0  0
    9.7199  -11.3310    0.0000 C   0  0  0  0  0  0  0  0  0  0  0  0
   11.1488  -12.1560    0.0000 C   0  0  0  0  0  0  0  0  0  0  0  0
   11.1488  -11.3310    0.0000 C   0  0  0  0  0  0  0  0  0  0  0  0
   11.9335  -11.0761    0.0000 C   0  0  0  0  0  0  0  0  0  0  0  0
   11.9335  -12.4109    0.0000 C   0  0  0  0  0  0  0  0  0  0  0  0
   12.4184  -11.7435    0.0000 C   0  0  0  0  0  0  0  0  0  0  0  0
    6.8620  -13.8061    0.0000 O   0  0  0  0  0  0  0  0  0  0  0  0
    9.0054  -11.7435    0.0000 C   0  0  0  0  0  0  0  0  0  0  0  0
   11.1488  -10.5060    0.0000 C   0  0  0  0  0  0  0  0  0  0  0  0
    9.0054  -10.9185    0.0000 O   0  0  0  0  0  0  0  0  0  0  0  0
   11.9335  -10.2511    0.0000 C   0  0  0  0  0  0  0  0  0  0  0  0
   12.6479  -10.6636    0.0000 O   0  0  0  0  0  0  0  0  0  0  0  0
   11.2190   -9.8386    0.0000 O   0  0  0  0  0  0  0  0  0  0  0  0
   12.6479   -9.8386    0.0000 O   0  0  0  0  0  0  0  0  0  0  0  0
   10.5045  -10.2511    0.0000 C   0  0  0  0  0  0  0  0  0  0  0  0
    9.7900   -9.8386    0.0000 Cl  0  0  0  0  0  0  0  0  0  0  0  0
  1  2  2  0
  2  3  1  0
  3  4  1  0
  4  5  2  0
  1  6  1  0
  7  6  1  0
  6  5  1  0
  5  8  1  0
  8  9  1  0
 10  9  1  6
 10 13  1  0
  7 10  1  0
  7 12  1  1
 11 12  1  0
 11 14  1  0
 15 14  1  0
 14 13  1  0
 13 16  1  1
 16 17  1  0
 15 17  1  0
  3 18  2  0
  6 19  1  1
 14 20  1  1
 12 21  1  1
 15 22  1  0
 15 23  1  6
 22 24  1  0
 22 25  2  0
 24 26  1  0
 26 27  1  0
M  END
$$$$
