 
     RDKit          2D

 35 38  0  0  1  0  0  0  0  0999 V2000
    3.0938  -13.6125    0.0000 C   0  0  0  0  0  0  0  0  0  0  0  0
    3.0938  -14.4375    0.0000 C   0  0  0  0  0  0  0  0  0  0  0  0
    3.8082  -14.8500    0.0000 C   0  0  0  0  0  0  0  0  0  0  0  0
    4.5227  -14.4375    0.0000 C   0  0  0  0  0  0  0  0  0  0  0  0
    4.5227  -13.6125    0.0000 C   0  0  0  0  0  0  0  0  0  0  0  0
    3.8082  -13.2000    0.0000 C   0  0  0  0  0  0  0  0  0  0  0  0
    5.2372  -14.8500    0.0000 C   0  0  0  0  0  0  0  0  0  0  0  0
    5.9516  -14.4375    0.0000 C   0  0  0  0  0  0  0  0  0  0  0  0
    5.9516  -13.6125    0.0000 C   0  0  0  0  0  0  0  0  0  0  0  0
    5.2372  -13.2000    0.0000 C   0  0  0  0  0  0  0  0  0  0  0  0
    6.6661  -14.8500    0.0000 C   0  0  0  0  0  0  0  0  0  0  0  0
    7.3806  -14.4375    0.0000 C   0  0  0  0  0  0  0  0  0  0  0  0
    7.3806  -13.6125    0.0000 C   0  0  0  0  0  0  0  0  0  0  0  0
    6.6661  -13.2000    0.0000 C   0  0  0  0  0  0  0  0  0  0  0  0
    8.0950  -14.8500    0.0000 C   0  0  0  0  0  0  0  0  0  0  0  0
    8.8095  -14.4375    0.0000 C   0  0  0  0  0  0  0  0  0  0  0  0
    8.8095  -13.6125    0.0000 C   0  0  0  0  0  0  0  0  0  0  0  0
    8.0950  -13.2000    0.0000 C   0  0  0  0  0  0  0  0  0  0  0  0
    3.8082  -12.3751    0.0000 Cl  0  0  0  0  0  0  0  0  0  0  0  0
    3.8082  -15.6749    0.0000 O   0  0  0  0  0  0  0  0  0  0  0  0
    5.2372  -15.6750    0.0000 O   0  0  0  0  0  0  0  0  0  0  0  0
    6.6661  -15.6748    0.0000 O   0  0  0  0  0  0  0  0  0  0  0  0
    8.0950  -15.6749    0.0000 O   0  0  0  0  0  0  0  0  0  0  0  0
    9.5374  -14.8579    0.0000 C   0  0  0  0  0  0  0  0  0  0  0  0
   10.2488  -14.4473    0.0000 N   0  0  0  0  0  0  0  0  0  0  0  0
   10.9449  -14.8494    0.0000 C   0  0  0  0  0  0  0  0  0  0  0  0
   11.6488  -14.4429    0.0000 O   0  0  0  0  0  0  0  0  0  0  0  0
    9.5371  -15.6749    0.0000 O   0  0  0  0  0  0  0  0  0  0  0  0
    9.5374  -13.1921    0.0000 O   0  0  0  0  0  0  0  0  0  0  0  0
    5.2372  -12.3750    0.0000 C   0  0  0  0  0  0  0  0  0  0  0  0
    4.5239  -12.7882    0.0000 O   0  0  0  0  0  0  0  0  0  0  0  0
    8.0950  -12.3751    0.0000 N   0  0  0  0  0  0  0  0  0  0  0  0
    7.3730  -11.9581    0.0000 C   0  0  0  0  0  0  0  0  0  0  0  0
    8.8020  -11.9669    0.0000 C   0  0  0  0  0  0  0  0  0  0  0  0
    7.3806  -15.2625    0.0000 O   0  0  0  0  0  0  0  0  0  0  0  0
  1  2  2  0
  2  3  1  0
  3  4  2  0
  4  5  1  0
  5  6  2  0
  1  6  1  0
  4  7  1  0
  7  8  1  0
  8  9  1  0
  9 10  1  0
  5 10  1  0
  8 11  2  0
 11 12  1  0
 12 13  1  0
 13 14  1  1
  9 14  1  1
 12 15  1  0
 15 16  1  0
 16 17  2  0
 17 18  1  0
 13 18  1  0
  6 19  1  0
  3 20  1  0
  7 21  2  0
 11 22  1  0
 15 23  2  0
 16 24  1  0
 24 25  1  0
 25 26  1  0
 26 27  1  0
 24 28  2  0
 17 29  1  0
 10 30  1  6
 10 31  1  0
 18 32  1  6
 32 33  1  0
 32 34  1  0
 12 35  1  6
M  END
$$$$
