558
     RDKit          2D

 23 23  0  0  1  0  0  0  0  0999 V2000
    4.9509   -0.5693    0.0000 O   0  0  0  0  0  0  0  0  0  0  0  0
    4.2365    1.4933    0.0000 O   0  0  0  0  0  0  0  0  0  0  0  0
    3.5220   -0.5693    0.0000 O   0  0  0  0  0  0  0  0  0  0  0  0
    2.0930    0.2558    0.0000 O   0  0  0  0  0  0  0  0  0  0  0  0
    7.0944    1.4933    0.0000 O   0  0  0  0  0  0  0  0  0  0  0  0
    6.3799   -2.2193    0.0000 O   0  0  0  0  0  0  0  0  0  0  0  0
    4.9509   -2.2193    0.0000 O   0  0  0  0  0  0  0  0  0  0  0  0
    5.6655    1.4933    0.0000 N   0  0  0  0  0  0  0  0  0  0  0  0
    7.0944    0.6683    0.0000 N   0  0  0  0  0  0  0  0  0  0  0  0
    8.5234    0.6683    0.0000 N   0  0  0  0  0  0  0  0  0  0  0  0
    7.8089   -0.5693    0.0000 N   0  0  0  0  0  0  0  0  0  0  0  0
    4.9509    0.2558    0.0000 C   0  0  0  0  0  0  0  0  0  0  0  0
    5.6655    0.6683    0.0000 C   0  0  0  0  0  0  0  0  0  0  0  0
    4.2365    0.6683    0.0000 C   0  0  0  0  0  0  0  0  0  0  0  0
    6.3799    0.2558    0.0000 C   0  0  0  0  0  0  0  0  0  0  0  0
    3.5220    0.2558    0.0000 C   0  0  0  0  0  0  0  0  0  0  0  0
    6.3799   -0.5693    0.0000 C   0  0  0  0  0  0  0  0  0  0  0  0
    5.6655   -0.9818    0.0000 C   0  0  0  0  0  0  0  0  0  0  0  0
    2.8075    0.6683    0.0000 C   0  0  0  0  0  0  0  0  0  0  0  0
    6.3799    1.9058    0.0000 C   0  0  0  0  0  0  0  0  0  0  0  0
    5.6655   -1.8068    0.0000 C   0  0  0  0  0  0  0  0  0  0  0  0
    7.8089    0.2558    0.0000 C   0  0  0  0  0  0  0  0  0  0  0  0
    6.3799    2.7308    0.0000 C   0  0  0  0  0  0  0  0  0  0  0  0
 12  1  1  1
  1 18  1  0
 14  2  1  1
 16  3  1  6
  4 19  1  0
  5 20  2  0
  6 21  1  0
  7 21  2  0
 13  8  1  6
  8 20  1  0
 15  9  1  1
  9 22  2  0
 10 22  1  0
 11 22  1  0
 12 13  1  0
 12 14  1  0
 13 15  1  0
 14 16  1  0
 15 17  1  0
 16 19  1  0
 17 18  2  0
 18 21  1  0
 20 23  1  0
M  END
$$$$
