960
     RDKit          2D

 18 19  0  0  1  0  0  0  0  0999 V2000
    4.5080   -0.4562    0.0000 O   0  0  0  0  0  0  0  0  0  0  0  0
    4.5080    1.1938    0.0000 O   0  0  0  0  0  0  0  0  0  0  0  0
    3.0791    2.0188    0.0000 N   0  0  0  0  0  0  0  0  0  0  0  0
    6.0031   -2.7702    0.0000 N   0  0  0  0  0  0  0  0  0  0  0  0
    3.7935    0.7813    0.0000 C   0  0  0  0  0  0  0  0  0  0  0  0
    3.0791    1.1938    0.0000 C   0  0  0  0  0  0  0  0  0  0  0  0
    2.3645    2.4313    0.0000 C   0  0  0  0  0  0  0  0  0  0  0  0
    3.7935   -0.0437    0.0000 C   0  0  0  0  0  0  0  0  0  0  0  0
    5.2224   -1.6938    0.0000 C   0  0  0  0  0  0  0  0  0  0  0  0
    4.5080   -1.2813    0.0000 C   0  0  0  0  0  0  0  0  0  0  0  0
    2.3645    3.2563    0.0000 C   0  0  0  0  0  0  0  0  0  0  0  0
    1.6500    2.0188    0.0000 C   0  0  0  0  0  0  0  0  0  0  0  0
    5.2224   -2.5188    0.0000 C   0  0  0  0  0  0  0  0  0  0  0  0
    6.0031   -1.4423    0.0000 C   0  0  0  0  0  0  0  0  0  0  0  0
    3.7935   -1.6938    0.0000 C   0  0  0  0  0  0  0  0  0  0  0  0
    4.5080   -2.9313    0.0000 C   0  0  0  0  0  0  0  0  0  0  0  0
    6.4846   -2.1063    0.0000 C   0  0  0  0  0  0  0  0  0  0  0  0
    3.7935   -2.5188    0.0000 C   0  0  0  0  0  0  0  0  0  0  0  0
  1  8  1  0
  1 10  1  0
  2  5  1  0
  3  6  1  0
  3  7  1  0
  4 13  1  0
  4 17  1  0
  5  6  1  0
  5  8  1  0
  7 11  1  0
  7 12  1  0
  9 10  1  0
  9 13  2  0
  9 14  1  0
 10 15  2  0
 13 16  1  0
 14 17  2  0
 15 18  1  0
 16 18  2  0
M  END
$$$$
