938
     RDKit          2D

 30 31  0  0  1  0  0  0  0  0999 V2000
    7.8089    1.9842    0.0000 O   0  0  0  0  0  0  0  0  0  0  0  0
    3.5220   -2.9659    0.0000 O   0  0  0  0  0  0  0  0  0  0  0  0
    4.2365   -6.6785    0.0000 O   0  0  0  0  0  0  0  0  0  0  0  0
    2.0930   -5.4410    0.0000 O   0  0  0  0  0  0  0  0  0  0  0  0
    4.9509   -2.1409    0.0000 N   0  0  0  0  0  0  0  0  0  0  0  0
    6.3799   -0.4909    0.0000 C   0  0  0  0  0  0  0  0  0  0  0  0
    6.3799    0.3341    0.0000 C   0  0  0  0  0  0  0  0  0  0  0  0
    5.6655   -0.9034    0.0000 C   0  0  0  0  0  0  0  0  0  0  0  0
    7.0944    0.7466    0.0000 C   0  0  0  0  0  0  0  0  0  0  0  0
    5.6655   -1.7284    0.0000 C   0  0  0  0  0  0  0  0  0  0  0  0
    4.9509   -2.9659    0.0000 C   0  0  0  0  0  0  0  0  0  0  0  0
    7.0944    1.5717    0.0000 C   0  0  0  0  0  0  0  0  0  0  0  0
    4.2365   -3.3784    0.0000 C   0  0  0  0  0  0  0  0  0  0  0  0
    8.5234    3.2217    0.0000 C   0  0  0  0  0  0  0  0  0  0  0  0
    8.5234    4.0467    0.0000 C   0  0  0  0  0  0  0  0  0  0  0  0
    7.8089    2.8092    0.0000 C   0  0  0  0  0  0  0  0  0  0  0  0
    4.2365   -4.2035    0.0000 C   0  0  0  0  0  0  0  0  0  0  0  0
    9.2379    4.4592    0.0000 C   0  0  0  0  0  0  0  0  0  0  0  0
    3.5220   -4.6160    0.0000 C   0  0  0  0  0  0  0  0  0  0  0  0
    9.2379    5.2842    0.0000 C   0  0  0  0  0  0  0  0  0  0  0  0
    4.9509   -4.6160    0.0000 C   0  0  0  0  0  0  0  0  0  0  0  0
    3.5220   -5.4410    0.0000 C   0  0  0  0  0  0  0  0  0  0  0  0
    4.9509   -5.4410    0.0000 C   0  0  0  0  0  0  0  0  0  0  0  0
    4.2365   -5.8535    0.0000 C   0  0  0  0  0  0  0  0  0  0  0  0
    8.5234    5.6968    0.0000 C   0  0  0  0  0  0  0  0  0  0  0  0
    9.9524    5.6968    0.0000 C   0  0  0  0  0  0  0  0  0  0  0  0
    2.8075   -5.8535    0.0000 C   0  0  0  0  0  0  0  0  0  0  0  0
    8.5234    6.5218    0.0000 C   0  0  0  0  0  0  0  0  0  0  0  0
    9.9524    6.5218    0.0000 C   0  0  0  0  0  0  0  0  0  0  0  0
    9.2379    6.9343    0.0000 C   0  0  0  0  0  0  0  0  0  0  0  0
  1 12  1  0
  1 16  1  0
  2 13  1  0
  3 24  1  0
  4 27  1  0
  5 10  1  0
  5 11  1  0
  6  7  1  0
  6  8  1  0
  7  9  1  0
  8 10  1  0
  9 12  1  0
 11 13  1  0
 13 17  1  0
 14 15  1  0
 14 16  1  0
 15 18  1  0
 17 19  2  0
 17 21  1  0
 18 20  1  0
 19 22  1  0
 20 25  2  0
 20 26  1  0
 21 23  2  0
 22 24  2  0
 22 27  1  0
 23 24  1  0
 25 28  1  0
 26 29  2  0
 28 30  2  0
 29 30  1  0
M  END
$$$$
