
     RDKit          2D

 28 31  0  0  1  0  0  0  0  0999 V2000
    0.7145   -0.4125    0.0000 C   0  0  0  0  0  0  0  0  0  0  0  0
    0.7145    0.4125    0.0000 C   0  0  0  0  0  0  0  0  0  0  0  0
   -0.7145   -0.4125    0.0000 C   0  0  0  0  0  0  0  0  0  0  0  0
    0.0000   -0.8250    0.0000 C   0  0  0  0  0  0  0  0  0  0  0  0
    0.0000    0.8250    0.0000 C   0  0  0  0  0  0  0  0  0  0  0  0
   -0.7145    0.4125    0.0000 C   0  0  0  0  0  0  0  0  0  0  0  0
   -2.1434    0.4125    0.0000 C   0  0  0  0  0  0  0  0  0  0  0  0
   -2.1434   -0.4125    0.0000 C   0  0  0  0  0  0  0  0  0  0  0  0
   -1.4289   -0.8250    0.0000 C   0  0  0  0  0  0  0  0  0  0  0  0
   -1.4289    0.8250    0.0000 C   0  0  0  0  0  0  0  0  0  0  0  0
    0.7145    2.0625    0.0000 C   0  0  0  0  0  0  0  0  0  0  0  0
    0.0000    1.6500    0.0000 C   0  0  0  0  0  0  0  0  0  0  0  0
    2.2136    0.5701    0.0000 C   0  0  0  0  0  0  0  0  0  0  0  0
    2.6985    1.2375    0.0000 C   0  0  0  0  0  0  0  0  0  0  0  0
    2.2136    1.9049    0.0000 C   0  0  0  0  0  0  0  0  0  0  0  0
   -2.8579   -0.8250    0.0000 O   0  0  0  0  0  0  0  0  0  0  0  0
    0.0000    0.0000    0.0000 Cl  0  0  0  0  0  0  0  0  0  0  0  0
    1.4289    1.6500    0.0000 C   0  0  0  0  0  0  0  0  0  0  0  0
    1.4289    2.4750    0.0000 C   0  0  0  0  0  0  0  0  0  0  0  0
    1.4289    0.8250    0.0000 C   0  0  0  0  0  0  0  0  0  0  0  0
   -0.7145    1.2375    0.0000 C   0  0  0  0  0  0  0  0  0  0  0  0
   -0.7145    2.0625    0.0000 O   0  0  0  0  0  0  0  0  0  0  0  0
    3.5235    1.2375    0.0000 C   0  0  0  0  0  0  0  0  0  0  0  0
    2.2136    2.7299    0.0000 C   0  0  0  0  0  0  0  0  0  0  0  0
    2.9281    3.1424    0.0000 C   0  0  0  0  0  0  0  0  0  0  0  0
    3.6425    2.7299    0.0000 Cl  0  0  0  0  0  0  0  0  0  0  0  0
    1.4991    3.1424    0.0000 O   0  0  0  0  0  0  0  0  0  0  0  0
    2.9281    2.3174    0.0000 O   0  0  0  0  0  0  0  0  0  0  0  0
  2  1  1  6
 20  2  1  0
  9  3  2  0
  3  4  1  0
  4  1  1  0
  2  5  1  0
  5 12  1  0
  5 17  1  6
  6  3  1  0
  5  6  1  0
  6 10  1  0
  6 21  1  1
  7  8  1  0
  7 10  2  0
  8  9  1  0
  8 16  2  0
 18 11  1  0
 11 12  1  0
 20 13  1  1
 13 14  1  0
 15 14  1  0
 18 15  1  0
 20 18  1  0
 18 19  1  1
 12 22  1  6
 14 23  1  6
 15 24  1  0
 24 25  1  0
 25 26  1  0
 24 27  2  0
 15 28  1  6
M  END
$$$$
