589
     RDKit          2D

 25 28  0  0  1  0  0  0  0  0999 V2000
    4.5073    2.1324    0.0000 O   0  0  0  0  0  0  0  0  0  0  0  0
    5.9985    0.4769    0.0000 N   0  0  0  0  0  0  0  0  0  0  0  0
    3.7976    0.8924    0.0000 N   0  0  0  0  0  0  0  0  0  0  0  0
    6.9735   -2.9186    0.0000 N   0  0  0  0  0  0  0  0  0  0  0  0
    3.0785    2.1270    0.0000 N   0  0  0  0  0  0  0  0  0  0  0  0
    5.9852   -0.3821    0.0000 C   0  0  0  0  0  0  0  0  0  0  0  0
    5.2709   -0.7946    0.0000 C   0  0  0  0  0  0  0  0  0  0  0  0
    6.6997   -0.7946    0.0000 C   0  0  0  0  0  0  0  0  0  0  0  0
    4.5136    0.4826    0.0000 C   0  0  0  0  0  0  0  0  0  0  0  0
    5.2578    0.9124    0.0000 C   0  0  0  0  0  0  0  0  0  0  0  0
    6.6997   -1.6195    0.0000 C   0  0  0  0  0  0  0  0  0  0  0  0
    5.2709   -1.6195    0.0000 C   0  0  0  0  0  0  0  0  0  0  0  0
    5.9852   -2.0319    0.0000 C   0  0  0  0  0  0  0  0  0  0  0  0
    4.5202   -0.3765    0.0000 C   0  0  0  0  0  0  0  0  0  0  0  0
    5.9985   -2.8911    0.0000 C   0  0  0  0  0  0  0  0  0  0  0  0
    6.7177    0.8812    0.0000 C   0  0  0  0  0  0  0  0  0  0  0  0
    7.3076   -2.1698    0.0000 C   0  0  0  0  0  0  0  0  0  0  0  0
    4.5202   -2.0375    0.0000 C   0  0  0  0  0  0  0  0  0  0  0  0
    5.2578   -3.3264    0.0000 C   0  0  0  0  0  0  0  0  0  0  0  0
    4.5136   -2.8968    0.0000 C   0  0  0  0  0  0  0  0  0  0  0  0
    3.7945    1.7173    0.0000 C   0  0  0  0  0  0  0  0  0  0  0  0
    2.3657    1.7118    0.0000 C   0  0  0  0  0  0  0  0  0  0  0  0
    3.0754    2.9518    0.0000 C   0  0  0  0  0  0  0  0  0  0  0  0
    1.6498    2.1214    0.0000 C   0  0  0  0  0  0  0  0  0  0  0  0
    2.3594    3.3615    0.0000 C   0  0  0  0  0  0  0  0  0  0  0  0
  1 21  2  0
  2  6  1  0
  2 10  1  0
  2 16  1  0
  9  3  1  6
  3 21  1  0
  4 15  1  0
  4 17  1  0
  5 21  1  0
  5 22  1  0
  5 23  1  0
  6  7  1  0
  6  8  1  6
  7 12  1  0
  7 14  2  0
  8 11  1  0
  9 10  1  0
  9 14  1  0
 11 13  1  0
 11 17  2  0
 12 13  2  0
 12 18  1  0
 13 15  1  0
 15 19  2  0
 18 20  2  0
 19 20  1  0
 22 24  1  0
 23 25  1  0
M  END
$$$$
