380
     RDKit          2D

 19 20  0  0  1  0  0  0  0  0999 V2000
    5.2224    2.6813    0.0000 O   0  0  0  0  0  0  0  0  0  0  0  0
    2.3645    2.6813    0.0000 O   0  0  0  0  0  0  0  0  0  0  0  0
    4.5080   -2.6813    0.0000 O   0  0  0  0  0  0  0  0  0  0  0  0
    1.6500   -2.6813    0.0000 O   0  0  0  0  0  0  0  0  0  0  0  0
    3.7935    1.0313    0.0000 N   0  0  0  0  0  0  0  0  0  0  0  0
    3.0791   -1.0313    0.0000 N   0  0  0  0  0  0  0  0  0  0  0  0
    3.7935    2.6813    0.0000 N   0  0  0  0  0  0  0  0  0  0  0  0
    3.0791   -2.6813    0.0000 N   0  0  0  0  0  0  0  0  0  0  0  0
    3.7935    0.2063    0.0000 C   0  0  0  0  0  0  0  0  0  0  0  0
    3.0791   -0.2063    0.0000 C   0  0  0  0  0  0  0  0  0  0  0  0
    4.5080    1.4438    0.0000 C   0  0  0  0  0  0  0  0  0  0  0  0
    3.0791    1.4438    0.0000 C   0  0  0  0  0  0  0  0  0  0  0  0
    4.5080   -0.2063    0.0000 C   0  0  0  0  0  0  0  0  0  0  0  0
    3.7935   -1.4438    0.0000 C   0  0  0  0  0  0  0  0  0  0  0  0
    2.3645   -1.4438    0.0000 C   0  0  0  0  0  0  0  0  0  0  0  0
    4.5080    2.2688    0.0000 C   0  0  0  0  0  0  0  0  0  0  0  0
    3.0791    2.2688    0.0000 C   0  0  0  0  0  0  0  0  0  0  0  0
    3.7935   -2.2688    0.0000 C   0  0  0  0  0  0  0  0  0  0  0  0
    2.3645   -2.2688    0.0000 C   0  0  0  0  0  0  0  0  0  0  0  0
  1 16  2  0
  2 17  2  0
  3 18  2  0
  4 19  2  0
  5  9  1  0
  5 11  1  0
  5 12  1  0
  6 10  1  0
  6 14  1  0
  6 15  1  0
  7 16  1  0
  7 17  1  0
  8 18  1  0
  8 19  1  0
  9 10  1  0
  9 13  1  1
 11 16  1  0
 12 17  1  0
 14 18  1  0
 15 19  1  0
M  END
$$$$
