689
     RDKit          2D

 28 30  0  0  1  0  0  0  0  0999 V2000
    5.2223   -0.8460    0.0000 S   0  0  0  0  0  0  0  0  0  0  0  0
    7.3508    0.9795    0.0000 O   0  0  0  0  0  0  0  0  0  0  0  0
    3.0790    0.3915    0.0000 O   0  0  0  0  0  0  0  0  0  0  0  0
    4.5079    2.0415    0.0000 O   0  0  0  0  0  0  0  0  0  0  0  0
    8.3633   -0.0131    0.0000 O   0  0  0  0  0  0  0  0  0  0  0  0
    5.9369    2.0415    0.0000 O   0  0  0  0  0  0  0  0  0  0  0  0
    2.3645    1.6290    0.0000 O   0  0  0  0  0  0  0  0  0  0  0  0
    5.9369    0.3915    0.0000 N   0  0  0  0  0  0  0  0  0  0  0  0
    7.3508   -1.0214    0.0000 N   0  0  0  0  0  0  0  0  0  0  0  0
    8.5152   -2.1906    0.0000 N   0  0  0  0  0  0  0  0  0  0  0  0
    5.9369   -0.4335    0.0000 C   0  0  0  0  0  0  0  0  0  0  0  0
    6.7686   -0.4369    0.0000 C   0  0  0  0  0  0  0  0  0  0  0  0
    6.7686    0.3949    0.0000 C   0  0  0  0  0  0  0  0  0  0  0  0
    5.2223    0.8040    0.0000 C   0  0  0  0  0  0  0  0  0  0  0  0
    4.5079    0.3915    0.0000 C   0  0  0  0  0  0  0  0  0  0  0  0
    4.5079   -0.4335    0.0000 C   0  0  0  0  0  0  0  0  0  0  0  0
    3.7934    0.8040    0.0000 C   0  0  0  0  0  0  0  0  0  0  0  0
    8.1481   -0.8096    0.0000 C   0  0  0  0  0  0  0  0  0  0  0  0
    5.2223    1.6290    0.0000 C   0  0  0  0  0  0  0  0  0  0  0  0
    8.7303   -1.3942    0.0000 C   0  0  0  0  0  0  0  0  0  0  0  0
    9.5276   -1.1822    0.0000 C   0  0  0  0  0  0  0  0  0  0  0  0
    9.7428   -0.3858    0.0000 C   0  0  0  0  0  0  0  0  0  0  0  0
   10.1098   -1.7668    0.0000 C   0  0  0  0  0  0  0  0  0  0  0  0
    2.3645    0.8040    0.0000 C   0  0  0  0  0  0  0  0  0  0  0  0
   10.5401   -0.1739    0.0000 C   0  0  0  0  0  0  0  0  0  0  0  0
   10.9072   -1.5550    0.0000 C   0  0  0  0  0  0  0  0  0  0  0  0
   11.1223   -0.7585    0.0000 C   0  0  0  0  0  0  0  0  0  0  0  0
    1.6500    0.3915    0.0000 C   0  0  0  0  0  0  0  0  0  0  0  0
 11  1  1  1
  1 16  1  0
  2 13  2  0
  3 17  1  0
  3 24  1  0
  4 19  1  0
  5 18  2  0
  6 19  2  0
  7 24  2  0
  8 11  1  0
  8 13  1  0
  8 14  1  0
 12  9  1  1
  9 18  1  0
 20 10  1  1
 11 12  1  0
 12 13  1  0
 14 15  2  0
 14 19  1  0
 15 16  1  0
 15 17  1  0
 18 20  1  0
 20 21  1  0
 21 22  2  0
 21 23  1  0
 22 25  1  0
 23 26  2  0
 24 28  1  0
 25 27  2  0
 26 27  1  0
M  END
$$$$
