4167
     RDKit          2D

 22 25  0  0  1  0  0  0  0  0999 V2000
    3.8495   -2.4607    0.0000 S   0  0  0  0  0  0  0  0  0  0  0  0
    5.2784    1.6643    0.0000 N   0  0  0  0  0  0  0  0  0  0  0  0
    4.5640    0.4268    0.0000 C   0  0  0  0  0  0  0  0  0  0  0  0
    3.8495    0.0143    0.0000 C   0  0  0  0  0  0  0  0  0  0  0  0
    5.2784    0.0143    0.0000 C   0  0  0  0  0  0  0  0  0  0  0  0
    4.5640    1.2518    0.0000 C   0  0  0  0  0  0  0  0  0  0  0  0
    3.8495   -0.8107    0.0000 C   0  0  0  0  0  0  0  0  0  0  0  0
    5.9929    0.4268    0.0000 C   0  0  0  0  0  0  0  0  0  0  0  0
    5.9929    1.2518    0.0000 C   0  0  0  0  0  0  0  0  0  0  0  0
    4.5640   -1.2232    0.0000 C   0  0  0  0  0  0  0  0  0  0  0  0
    3.1350   -1.2232    0.0000 C   0  0  0  0  0  0  0  0  0  0  0  0
    5.2784    2.4893    0.0000 C   0  0  0  0  0  0  0  0  0  0  0  0
    4.5640   -2.0482    0.0000 C   0  0  0  0  0  0  0  0  0  0  0  0
    3.1350   -2.0482    0.0000 C   0  0  0  0  0  0  0  0  0  0  0  0
    2.3975   -0.7821    0.0000 C   0  0  0  0  0  0  0  0  0  0  0  0
    5.3015   -0.7821    0.0000 C   0  0  0  0  0  0  0  0  0  0  0  0
    5.3015   -2.4893    0.0000 C   0  0  0  0  0  0  0  0  0  0  0  0
    2.3975   -2.4893    0.0000 C   0  0  0  0  0  0  0  0  0  0  0  0
    6.0490   -1.2061    0.0000 C   0  0  0  0  0  0  0  0  0  0  0  0
    1.6500   -1.2061    0.0000 C   0  0  0  0  0  0  0  0  0  0  0  0
    6.0490   -2.0654    0.0000 C   0  0  0  0  0  0  0  0  0  0  0  0
    1.6500   -2.0654    0.0000 C   0  0  0  0  0  0  0  0  0  0  0  0
  1 13  1  0
  1 14  1  0
  2  6  1  0
  2  9  1  0
  2 12  1  0
  3  4  1  0
  3  5  1  0
  3  6  1  0
  4  7  1  0
  5  8  1  0
  7 10  1  0
  7 11  1  0
  8  9  1  0
 10 13  2  0
 10 16  1  0
 11 14  2  0
 11 15  1  0
 13 17  1  0
 14 18  1  0
 15 20  2  0
 16 19  2  0
 17 21  2  0
 18 22  2  0
 19 21  1  0
 20 22  1  0
M  END
$$$$
