
     RDKit          2D

 32 35  0  0  0  0  0  0  0  0999 V2000
    0.6947   -0.1982    0.0000 C   0  0  0  0  0  0  0  0  0  0  0  0
    0.7047    0.6037    0.0000 C   0  0  0  0  0  0  0  0  0  0  0  0
   -0.0398   -0.6034    0.0000 C   0  0  0  0  0  0  0  0  0  0  0  0
    1.4167   -0.6403    0.0000 C   0  0  0  0  0  0  0  0  0  0  0  0
   -0.0006    1.0215    0.0000 C   0  0  0  0  0  0  0  0  0  0  0  0
    1.4546    1.0457    0.0000 C   0  0  0  0  0  0  0  0  0  0  0  0
    0.7047    1.4287    0.0000 O   0  0  0  0  0  0  0  0  0  0  0  0
   -0.7495   -0.1972    0.0000 C   0  0  0  0  0  0  0  0  0  0  0  0
   -0.0398   -1.4282    0.0000 O   0  0  0  0  0  0  0  0  0  0  0  0
    2.1630   -0.2199    0.0000 C   0  0  0  0  0  0  0  0  0  0  0  0
    1.4167   -1.4651    0.0000 N   0  0  0  0  0  0  0  0  0  0  0  0
   -0.7424    0.6278    0.0000 C   0  0  0  0  0  0  0  0  0  0  0  0
   -0.0006    1.8463    0.0000 O   0  0  0  0  0  0  0  0  0  0  0  0
    2.1694    0.5922    0.0000 C   0  0  0  0  0  0  0  0  0  0  0  0
    1.4546    1.8707    0.0000 O   0  0  0  0  0  0  0  0  0  0  0  0
   -1.4707   -0.6023    0.0000 C   0  0  0  0  0  0  0  0  0  0  0  0
    2.8788   -0.6323    0.0000 O   0  0  0  0  0  0  0  0  0  0  0  0
    2.1243   -1.8727    0.0000 C   0  0  0  0  0  0  0  0  0  0  0  0
    0.6966   -1.8782    0.0000 C   0  0  0  0  0  0  0  0  0  0  0  0
   -1.4412    1.0532    0.0000 C   0  0  0  0  0  0  0  0  0  0  0  0
    2.8854    1.0047    0.0000 C   0  0  0  0  0  0  0  0  0  0  0  0
   -2.1744   -0.1843    0.0000 C   0  0  0  0  0  0  0  0  0  0  0  0
   -2.1744    0.6406    0.0000 C   0  0  0  0  0  0  0  0  0  0  0  0
   -1.4412    1.8782    0.0000 O   0  0  0  0  0  0  0  0  0  0  0  0
    3.6051    0.5877    0.0000 N   0  0  0  0  0  0  0  0  0  0  0  0
    2.8854    1.8248    0.0000 O   0  0  0  0  0  0  0  0  0  0  0  0
   -2.8908   -0.5853    0.0000 C   0  0  0  0  0  0  0  0  0  0  0  0
   -2.8592    1.0532    0.0000 C   0  0  0  0  0  0  0  0  0  0  0  0
   -3.6051   -0.1740    0.0000 C   0  0  0  0  0  0  0  0  0  0  0  0
   -3.6051    0.6522    0.0000 C   0  0  0  0  0  0  0  0  0  0  0  0
   -2.8592    1.8780    0.0000 O   0  0  0  0  0  0  0  0  0  0  0  0
   -1.4806   -1.4271    0.0000 C   0  0  0  0  0  0  0  0  0  0  0  0
  1  2  1  0
  1  3  1  0
  1  4  1  6
  2  5  1  0
  2  6  1  0
  2  7  1  1
  3  8  1  0
  3  9  1  1
  4 10  1  0
  4 11  1  1
  5 12  2  0
  5 13  1  0
  6 14  1  0
  6 15  2  0
  8 16  1  6
 10 17  1  0
 11 18  1  0
 11 19  1  0
 12 20  1  0
 14 21  1  0
 16 22  1  0
 20 23  1  0
 20 24  2  0
 21 25  1  0
 21 26  2  0
 22 27  2  0
 23 28  2  0
 27 29  1  0
 28 30  1  0
 28 31  1  0
  8 12  1  0
 10 14  2  0
 22 23  1  0
 29 30  2  0
 16 32  2  3
M  END
$$$$
