
     RDKit          2D

 29 31  0  0  0  0  0  0  0  0999 V2000
    0.3604    0.1671    0.0000 C   0  0  0  0  0  0  0  0  0  0  0  0
    0.0025   -0.5761    0.0000 C   0  0  0  0  0  0  0  0  0  0  0  0
   -0.8018   -0.7596    0.0000 N   0  0  0  0  0  0  0  0  0  0  0  0
   -0.8018    1.0941    0.0000 S   0  0  0  0  0  0  0  0  0  0  0  0
    0.0025    0.9105    0.0000 C   0  0  0  0  0  0  0  0  0  0  0  0
   -1.4468   -0.2453    0.0000 C   0  0  0  0  0  0  0  0  0  0  0  0
   -1.4468    0.5796    0.0000 C   0  0  0  0  0  0  0  0  0  0  0  0
    1.1854    0.1671    0.0000 O   0  0  0  0  0  0  0  0  0  0  0  0
   -0.9853   -1.5639    0.0000 C   0  0  0  0  0  0  0  0  0  0  0  0
    0.5168    1.5554    0.0000 C   0  0  0  0  0  0  0  0  0  0  0  0
    1.5979   -0.5472    0.0000 C   0  0  0  0  0  0  0  0  0  0  0  0
    0.5168   -1.2210    0.0000 O   0  0  0  0  0  0  0  0  0  0  0  0
    1.1854   -1.2617    0.0000 O   0  0  0  0  0  0  0  0  0  0  0  0
    0.2154    2.3234    0.0000 C   0  0  0  0  0  0  0  0  0  0  0  0
    1.3326    1.4325    0.0000 C   0  0  0  0  0  0  0  0  0  0  0  0
   -0.3806   -2.1251    0.0000 C   0  0  0  0  0  0  0  0  0  0  0  0
   -0.5641   -2.9294    0.0000 N   0  0  0  0  0  0  0  0  0  0  0  0
    1.5456    2.8455    0.0000 C   0  0  0  0  0  0  0  0  0  0  0  0
    1.8470    2.0775    0.0000 C   0  0  0  0  0  0  0  0  0  0  0  0
    0.7298    2.9684    0.0000 C   0  0  0  0  0  0  0  0  0  0  0  0
   -2.1612   -0.6578    0.0000 C   0  0  0  0  0  0  0  0  0  0  0  0
    2.0599    3.4905    0.0000 O   0  0  0  0  0  0  0  0  0  0  0  0
   -2.1612    0.9921    0.0000 C   0  0  0  0  0  0  0  0  0  0  0  0
    2.4229   -0.5472    0.0000 C   0  0  0  0  0  0  0  0  0  0  0  0
    0.0405   -3.4905    0.0000 C   0  0  0  0  0  0  0  0  0  0  0  0
   -1.3525   -3.1726    0.0000 C   0  0  0  0  0  0  0  0  0  0  0  0
    2.8758    3.3675    0.0000 C   0  0  0  0  0  0  0  0  0  0  0  0
   -2.8758   -0.2453    0.0000 C   0  0  0  0  0  0  0  0  0  0  0  0
   -2.8758    0.5796    0.0000 C   0  0  0  0  0  0  0  0  0  0  0  0
  2  1  1  0
  3  2  1  0
  4  5  1  0
  5  1  1  0
  6  3  1  0
  7  4  1  0
  1  8  1  1
  9  3  1  0
  5 10  1  1
 11  8  1  0
 12  2  2  0
 13 11  2  0
 14 10  2  0
 15 10  1  0
 16  9  1  0
 17 16  1  0
 18 19  1  0
 19 15  2  0
 20 14  1  0
 21  6  2  0
 22 18  1  0
 23  7  2  0
 24 11  1  0
 25 17  1  0
 26 17  1  0
 27 22  1  0
 28 21  1  0
 29 23  1  0
  7  6  1  0
 20 18  2  0
 29 28  2  0
M  END
$$$$
