452
     RDKit          2D

 42 45  0  0  1  0  0  0  0  0999 V2000
    6.6349   -0.3607    0.0000 O   0  0  0  0  0  0  0  0  0  0  0  0
    5.2059   -1.1857    0.0000 O   0  0  0  0  0  0  0  0  0  0  0  0
    8.1030   -0.2837    0.0000 O   0  0  0  0  0  0  0  0  0  0  0  0
    8.5781    1.7975    0.0000 O   0  0  0  0  0  0  0  0  0  0  0  0
    8.0638   -1.1857    0.0000 O   0  0  0  0  0  0  0  0  0  0  0  0
    3.9683   -1.9003    0.0000 O   0  0  0  0  0  0  0  0  0  0  0  0
    9.8836    1.2163    0.0000 O   0  0  0  0  0  0  0  0  0  0  0  0
    6.8225    1.4244    0.0000 O   0  0  0  0  0  0  0  0  0  0  0  0
    2.7309    0.2433    0.0000 O   0  0  0  0  0  0  0  0  0  0  0  0
    1.9058   -1.1857    0.0000 O   0  0  0  0  0  0  0  0  0  0  0  0
   10.8902    3.4774    0.0000 O   0  0  0  0  0  0  0  0  0  0  0  0
    9.8111   -0.5106    0.0000 O   0  0  0  0  0  0  0  0  0  0  0  0
   11.8601    2.1425    0.0000 O   0  0  0  0  0  0  0  0  0  0  0  0
    5.5078   -3.1377    0.0000 N   0  0  0  0  0  0  0  0  0  0  0  0
    8.0638   -2.8358    0.0000 N   0  0  0  0  0  0  0  0  0  0  0  0
    4.3808    0.2432    0.0000 N   0  0  0  0  0  0  0  0  0  0  0  0
    9.2493    3.3049    0.0000 N   0  0  0  0  0  0  0  0  0  0  0  0
    3.1434   -3.3292    0.0000 N   0  0  0  0  0  0  0  0  0  0  0  0
   12.0095    0.7213    0.0000 N   0  0  0  0  0  0  0  0  0  0  0  0
    6.6349   -1.1857    0.0000 C   0  0  0  0  0  0  0  0  0  0  0  0
    5.9203   -1.5982    0.0000 C   0  0  0  0  0  0  0  0  0  0  0  0
    5.9203   -2.4232    0.0000 C   0  0  0  0  0  0  0  0  0  0  0  0
    7.3493   -1.5982    0.0000 C   0  0  0  0  0  0  0  0  0  0  0  0
    7.3493   -2.4232    0.0000 C   0  0  0  0  0  0  0  0  0  0  0  0
    6.6349   -2.8358    0.0000 C   0  0  0  0  0  0  0  0  0  0  0  0
    7.3493    0.0518    0.0000 C   0  0  0  0  0  0  0  0  0  0  0  0
    8.2426    1.0438    0.0000 C   0  0  0  0  0  0  0  0  0  0  0  0
    7.4356    0.8723    0.0000 C   0  0  0  0  0  0  0  0  0  0  0  0
    8.6551    0.3293    0.0000 C   0  0  0  0  0  0  0  0  0  0  0  0
    4.3808   -1.1857    0.0000 C   0  0  0  0  0  0  0  0  0  0  0  0
    3.9684   -0.4712    0.0000 C   0  0  0  0  0  0  0  0  0  0  0  0
    3.1433   -0.4712    0.0000 C   0  0  0  0  0  0  0  0  0  0  0  0
    9.3986    1.8838    0.0000 C   0  0  0  0  0  0  0  0  0  0  0  0
    2.7308   -1.1857    0.0000 C   0  0  0  0  0  0  0  0  0  0  0  0
    3.1433   -1.9002    0.0000 C   0  0  0  0  0  0  0  0  0  0  0  0
    9.7341    2.6375    0.0000 C   0  0  0  0  0  0  0  0  0  0  0  0
   10.5547    2.7237    0.0000 C   0  0  0  0  0  0  0  0  0  0  0  0
    9.4756    0.2431    0.0000 C   0  0  0  0  0  0  0  0  0  0  0  0
   11.0397    2.0563    0.0000 C   0  0  0  0  0  0  0  0  0  0  0  0
   10.7040    1.3025    0.0000 C   0  0  0  0  0  0  0  0  0  0  0  0
    2.7308   -2.6147    0.0000 C   0  0  0  0  0  0  0  0  0  0  0  0
   11.1890    0.6351    0.0000 C   0  0  0  0  0  0  0  0  0  0  0  0
 20  1  1  6
 26  1  1  1
 21  2  1  1
 30  2  1  1
  3 26  1  0
  3 29  1  0
 27  4  1  6
 33  4  1  6
 23  5  1  1
  6 30  1  0
  6 35  1  0
  7 33  1  0
  7 40  1  0
 28  8  1  6
 32  9  1  6
 34 10  1  1
 37 11  1  1
 12 38  1  0
 39 13  1  6
 22 14  1  6
 24 15  1  6
 31 16  1  1
 36 17  1  6
 18 41  1  0
 19 42  1  0
 20 21  1  0
 20 23  1  0
 21 22  1  0
 22 25  1  0
 23 24  1  0
 24 25  1  0
 26 28  1  0
 27 28  1  0
 27 29  1  0
 29 38  1  1
 30 31  1  0
 31 32  1  0
 32 34  1  0
 33 36  1  0
 34 35  1  0
 35 41  1  6
 36 37  1  0
 37 39  1  0
 39 40  1  0
 40 42  1  6
M  END
$$$$
