177
     RDKit          2D

 32 34  0  0  1  0  0  0  0  0999 V2000
    2.0930    1.2209    0.0000 O   0  0  0  0  0  0  0  0  0  0  0  0
    4.9509   -0.4292    0.0000 O   0  0  0  0  0  0  0  0  0  0  0  0
    2.8075   -0.0167    0.0000 O   0  0  0  0  0  0  0  0  0  0  0  0
    4.2365    0.8084    0.0000 N   0  0  0  0  0  0  0  0  0  0  0  0
    7.8559    1.2933    0.0000 N   0  0  0  0  0  0  0  0  0  0  0  0
    9.1909    1.2933    0.0000 N   0  0  0  0  0  0  0  0  0  0  0  0
    8.1109    2.0779    0.0000 N   0  0  0  0  0  0  0  0  0  0  0  0
    8.9359    2.0779    0.0000 N   0  0  0  0  0  0  0  0  0  0  0  0
    3.5220    1.2209    0.0000 C   0  0  0  0  0  0  0  0  0  0  0  0
    3.5220    2.0459    0.0000 C   0  0  0  0  0  0  0  0  0  0  0  0
    4.9509    1.2209    0.0000 C   0  0  0  0  0  0  0  0  0  0  0  0
    4.2365   -0.0167    0.0000 C   0  0  0  0  0  0  0  0  0  0  0  0
    2.8075    2.4584    0.0000 C   0  0  0  0  0  0  0  0  0  0  0  0
    4.2365    2.4584    0.0000 C   0  0  0  0  0  0  0  0  0  0  0  0
    3.5220   -0.4292    0.0000 C   0  0  0  0  0  0  0  0  0  0  0  0
    2.8075    0.8084    0.0000 C   0  0  0  0  0  0  0  0  0  0  0  0
    5.6655    0.8084    0.0000 C   0  0  0  0  0  0  0  0  0  0  0  0
    3.5220   -1.2542    0.0000 C   0  0  0  0  0  0  0  0  0  0  0  0
    2.8075   -1.6667    0.0000 C   0  0  0  0  0  0  0  0  0  0  0  0
    6.3799    1.2209    0.0000 C   0  0  0  0  0  0  0  0  0  0  0  0
    5.6655   -0.0167    0.0000 C   0  0  0  0  0  0  0  0  0  0  0  0
    7.0944   -0.0167    0.0000 C   0  0  0  0  0  0  0  0  0  0  0  0
    7.0944    0.8084    0.0000 C   0  0  0  0  0  0  0  0  0  0  0  0
    6.3799   -0.4292    0.0000 C   0  0  0  0  0  0  0  0  0  0  0  0
    2.8075   -2.4917    0.0000 C   0  0  0  0  0  0  0  0  0  0  0  0
    7.8089   -0.4292    0.0000 C   0  0  0  0  0  0  0  0  0  0  0  0
    8.5234   -0.0167    0.0000 C   0  0  0  0  0  0  0  0  0  0  0  0
    7.8089   -1.2542    0.0000 C   0  0  0  0  0  0  0  0  0  0  0  0
    9.2379   -0.4292    0.0000 C   0  0  0  0  0  0  0  0  0  0  0  0
    8.5234   -1.6667    0.0000 C   0  0  0  0  0  0  0  0  0  0  0  0
    8.5234    0.8084    0.0000 C   0  0  0  0  0  0  0  0  0  0  0  0
    9.2379   -1.2542    0.0000 C   0  0  0  0  0  0  0  0  0  0  0  0
  1 16  1  0
  2 12  2  0
  3 16  2  0
  9  4  1  0
  4 11  1  0
  4 12  1  0
  5  7  1  0
  5 31  2  0
  6  8  2  0
  6 31  1  0
  7  8  1  0
  9 10  1  6
  9 16  1  0
 10 13  1  0
 10 14  1  0
 11 17  1  0
 12 15  1  0
 15 18  1  0
 17 20  2  0
 17 21  1  0
 18 19  1  0
 19 25  1  0
 20 23  1  0
 21 24  2  0
 22 23  2  0
 22 24  1  0
 22 26  1  0
 26 27  1  0
 26 28  2  0
 27 29  2  0
 27 31  1  0
 28 30  1  0
 29 32  1  0
 30 32  2  0
M  END
$$$$
