880
     RDKit          2D

 17 18  0  0  0  0  0  0  0  0999 V2000
    2.8075    1.0170    0.0000 Cl  0  0  0  0  0  0  0  0  0  0  0  0
    5.6885   -0.6617    0.0000 S   0  0  0  0  0  0  0  0  0  0  0  0
    2.8075   -0.6330    0.0000 S   0  0  0  0  0  0  0  0  0  0  0  0
    6.0927   -1.3808    0.0000 O   0  0  0  0  0  0  0  0  0  0  0  0
    5.2677   -1.3713    0.0000 O   0  0  0  0  0  0  0  0  0  0  0  0
    3.2200   -1.3475    0.0000 O   0  0  0  0  0  0  0  0  0  0  0  0
    2.3950    0.0814    0.0000 O   0  0  0  0  0  0  0  0  0  0  0  0
    5.6885    1.0456    0.0000 N   0  0  0  0  0  0  0  0  0  0  0  0
    6.4360   -0.2377    0.0000 N   0  0  0  0  0  0  0  0  0  0  0  0
    2.0930   -1.0455    0.0000 N   0  0  0  0  0  0  0  0  0  0  0  0
    4.9509   -0.2205    0.0000 C   0  0  0  0  0  0  0  0  0  0  0  0
    4.9509    0.6045    0.0000 C   0  0  0  0  0  0  0  0  0  0  0  0
    3.5220   -0.2205    0.0000 C   0  0  0  0  0  0  0  0  0  0  0  0
    4.2365   -0.6330    0.0000 C   0  0  0  0  0  0  0  0  0  0  0  0
    4.2365    1.0170    0.0000 C   0  0  0  0  0  0  0  0  0  0  0  0
    3.5220    0.6045    0.0000 C   0  0  0  0  0  0  0  0  0  0  0  0
    6.4360    0.6217    0.0000 C   0  0  0  0  0  0  0  0  0  0  0  0
  1 16  1  0
  2  4  2  0
  2  5  2  0
  2  9  1  0
  2 11  1  0
  3  6  2  0
  3  7  2  0
  3 10  1  0
  3 13  1  0
  8 12  1  0
  8 17  1  0
  9 17  2  0
 11 12  2  0
 11 14  1  0
 12 15  1  0
 13 14  2  0
 13 16  1  0
 15 16  2  0
M  END
$$$$
