545
     RDKit          2D

 13 13  0  0  0  0  0  0  0  0999 V2000
    3.0791    0.2063    0.0000 O   0  0  0  0  0  0  0  0  0  0  0  0
    3.7935    1.4438    0.0000 O   0  0  0  0  0  0  0  0  0  0  0  0
    4.5080   -1.4438    0.0000 N   0  0  0  0  0  0  0  0  0  0  0  0
    2.3645    1.4438    0.0000 N   0  0  0  0  0  0  0  0  0  0  0  0
    3.7935   -0.2063    0.0000 C   0  0  0  0  0  0  0  0  0  0  0  0
    3.7935   -1.0313    0.0000 C   0  0  0  0  0  0  0  0  0  0  0  0
    5.2224   -1.0313    0.0000 C   0  0  0  0  0  0  0  0  0  0  0  0
    4.5080    0.2063    0.0000 C   0  0  0  0  0  0  0  0  0  0  0  0
    5.2224   -0.2063    0.0000 C   0  0  0  0  0  0  0  0  0  0  0  0
    4.5080   -2.2688    0.0000 C   0  0  0  0  0  0  0  0  0  0  0  0
    3.0791    1.0313    0.0000 C   0  0  0  0  0  0  0  0  0  0  0  0
    2.3645    2.2688    0.0000 C   0  0  0  0  0  0  0  0  0  0  0  0
    1.6500    1.0313    0.0000 C   0  0  0  0  0  0  0  0  0  0  0  0
  1  5  1  0
  1 11  1  0
  2 11  2  0
  3  6  2  0
  3  7  1  0
  3 10  1  0
  4 11  1  0
  4 12  1  0
  4 13  1  0
  5  6  1  0
  5  8  2  0
  7  9  2  0
  8  9  1  0
M  CHG  1   3   1
M  END
$$$$
