
     RDKit          2D

 28 31  0  0  1  0  0  0  0  0999 V2000
    1.5767   -0.3873    0.0000 C   0  0  0  0  0  0  0  0  0  0  0  0
   -3.0569    1.7186    0.0000 C   0  0  0  0  0  0  0  0  0  0  0  0
   -3.0786    3.1300    0.0000 C   0  0  0  0  0  0  0  0  0  0  0  0
    1.2677    2.5711    0.0000 C   0  0  0  0  0  0  0  0  0  0  0  0
   -1.2483    2.9732    0.0000 C   0  0  0  0  0  0  0  0  0  0  0  0
    2.8919    2.2807    0.0000 C   0  0  0  0  0  0  0  0  0  0  0  0
    0.4555    2.7164    0.0000 C   0  0  0  0  0  0  0  0  0  0  0  0
   -1.2594    0.9486    0.0000 C   0  0  0  0  0  0  0  0  0  0  0  0
    2.0798    2.4259    0.0000 C   0  0  0  0  0  0  0  0  0  0  0  0
   -0.3566    2.8616    0.0000 C   0  0  0  0  0  0  0  0  0  0  0  0
   -1.9423    1.4116    0.0000 C   0  0  0  0  0  0  0  0  0  0  0  0
    0.4843    0.5338    0.0000 C   0  0  0  0  0  0  0  0  0  0  0  0
    2.6404    0.8741    0.0000 C   0  0  0  0  0  0  0  0  0  0  0  0
    1.2964    0.3886    0.0000 C   0  0  0  0  0  0  0  0  0  0  0  0
   -2.5251    2.3493    0.0000 C   0  0  0  0  0  0  0  0  0  0  0  0
   -2.3363    3.4899    0.0000 C   0  0  0  0  0  0  0  0  0  0  0  0
    3.1722    1.5048    0.0000 C   0  0  0  0  0  0  0  0  0  0  0  0
    0.2040    1.3097    0.0000 C   0  0  0  0  0  0  0  0  0  0  0  0
    0.7358    1.9404    0.0000 C   0  0  0  0  0  0  0  0  0  0  0  0
   -0.6081    1.4549    0.0000 C   0  0  0  0  0  0  0  0  0  0  0  0
    1.8283    1.0193    0.0000 C   0  0  0  0  0  0  0  0  0  0  0  0
    1.5480    1.7952    0.0000 C   0  0  0  0  0  0  0  0  0  0  0  0
   -0.8884    2.2309    0.0000 C   0  0  0  0  0  0  0  0  0  0  0  0
   -1.7130    2.2041    0.0000 C   0  0  0  0  0  0  0  0  0  0  0  0
   -3.2079    2.8122    0.0000 O   0  0  0  0  0  0  0  0  0  0  0  0
   -2.2767    4.3127    0.0000 O   0  0  0  0  0  0  0  0  0  0  0  0
    3.9843    1.3596    0.0000 O   0  0  0  0  0  0  0  0  0  0  0  0
   -1.6534    3.0269    0.0000 O   0  0  0  0  0  0  0  0  0  0  0  0
  9  6  1  0
 10  7  1  0
 11  8  1  0
 14  1  1  0
 14 12  2  0
 15  2  1  0
 16  3  1  0
 17  6  1  0
 17 13  1  0
 18 12  1  1
 19  7  1  6
 19 18  1  0
 20  8  1  6
 20 18  1  0
 21 13  2  0
 21 14  1  0
 22  4  1  6
 22  9  1  0
 22 19  1  0
 22 21  1  0
 23  5  1  6
 23 10  1  0
 23 20  1  0
 24 11  1  0
 24 15  1  0
 24 23  1  0
 25 15  2  0
 26 16  2  0
 27 17  2  0
 28 16  1  0
 24 28  1  1
M  END
$$$$
