496
     RDKit          2D

 32 36  0  0  1  0  0  0  0  0999 V2000
    3.2716    1.3928    0.0000 O   0  0  0  0  0  0  0  0  0  0  0  0
   10.5908   -1.4435    0.0000 O   0  0  0  0  0  0  0  0  0  0  0  0
    6.2378    0.0455    0.0000 N   0  0  0  0  0  0  0  0  0  0  0  0
    4.3609    1.8109    0.0000 N   0  0  0  0  0  0  0  0  0  0  0  0
    4.9320    0.3230    0.0000 C   0  0  0  0  0  0  0  0  0  0  0  0
    4.1116    0.2368    0.0000 C   0  0  0  0  0  0  0  0  0  0  0  0
    5.3446    1.0375    0.0000 C   0  0  0  0  0  0  0  0  0  0  0  0
    5.4841   -0.2902    0.0000 C   0  0  0  0  0  0  0  0  0  0  0  0
    6.1515    0.8659    0.0000 C   0  0  0  0  0  0  0  0  0  0  0  0
    6.9523   -0.3671    0.0000 C   0  0  0  0  0  0  0  0  0  0  0  0
    3.2910    0.1505    0.0000 C   0  0  0  0  0  0  0  0  0  0  0  0
    4.1978   -0.5838    0.0000 C   0  0  0  0  0  0  0  0  0  0  0  0
    4.0253    1.0573    0.0000 C   0  0  0  0  0  0  0  0  0  0  0  0
    7.6667    0.0455    0.0000 C   0  0  0  0  0  0  0  0  0  0  0  0
    2.8061    0.8179    0.0000 C   0  0  0  0  0  0  0  0  0  0  0  0
    3.5303   -1.0687    0.0000 C   0  0  0  0  0  0  0  0  0  0  0  0
    2.9555   -0.6032    0.0000 C   0  0  0  0  0  0  0  0  0  0  0  0
    4.9514   -0.9193    0.0000 C   0  0  0  0  0  0  0  0  0  0  0  0
    8.3812   -0.3671    0.0000 C   0  0  0  0  0  0  0  0  0  0  0  0
    1.9856    0.7317    0.0000 C   0  0  0  0  0  0  0  0  0  0  0  0
    3.6165   -1.8892    0.0000 C   0  0  0  0  0  0  0  0  0  0  0  0
    2.1350   -0.6894    0.0000 C   0  0  0  0  0  0  0  0  0  0  0  0
    5.0377   -1.7398    0.0000 C   0  0  0  0  0  0  0  0  0  0  0  0
    9.0957    0.0455    0.0000 C   0  0  0  0  0  0  0  0  0  0  0  0
    8.3812   -1.1921    0.0000 C   0  0  0  0  0  0  0  0  0  0  0  0
    1.6500   -0.0219    0.0000 C   0  0  0  0  0  0  0  0  0  0  0  0
    4.3703   -2.2247    0.0000 C   0  0  0  0  0  0  0  0  0  0  0  0
    9.8102   -0.3671    0.0000 C   0  0  0  0  0  0  0  0  0  0  0  0
    9.8102   -1.1921    0.0000 C   0  0  0  0  0  0  0  0  0  0  0  0
   10.5908   -0.1157    0.0000 C   0  0  0  0  0  0  0  0  0  0  0  0
    9.0957   -1.6046    0.0000 C   0  0  0  0  0  0  0  0  0  0  0  0
   11.0723   -0.7796    0.0000 C   0  0  0  0  0  0  0  0  0  0  0  0
  1 13  2  0
  2 29  1  0
  2 32  1  0
  3  8  1  0
  3  9  1  0
  3 10  1  0
  4 13  1  0
  5  6  1  6
  5  7  1  0
  5  8  1  0
  6 11  1  0
  6 12  1  0
  6 13  1  0
  7  9  1  0
 10 14  1  0
 11 15  2  0
 11 17  1  0
 12 16  2  0
 12 18  1  0
 14 19  1  0
 15 20  1  0
 16 21  1  0
 17 22  2  0
 18 23  2  0
 19 24  2  0
 19 25  1  0
 20 26  2  0
 21 27  2  0
 22 26  1  0
 23 27  1  0
 24 28  1  0
 25 31  2  0
 28 29  2  0
 28 30  1  0
 29 31  1  0
 30 32  1  0
M  END
$$$$
