425
     RDKit          2D

 23 25  0  0  0  0  0  0  0  0999 V2000
    3.4722    0.5743    0.0000 O   0  0  0  0  0  0  0  0  0  0  0  0
    3.7935   -0.9052    0.0000 N   0  0  0  0  0  0  0  0  0  0  0  0
    4.5741   -1.9816    0.0000 N   0  0  0  0  0  0  0  0  0  0  0  0
    4.5358    1.5287    0.0000 N   0  0  0  0  0  0  0  0  0  0  0  0
    4.5741   -0.6538    0.0000 C   0  0  0  0  0  0  0  0  0  0  0  0
    5.0556   -1.3177    0.0000 C   0  0  0  0  0  0  0  0  0  0  0  0
    3.7935   -1.7302    0.0000 C   0  0  0  0  0  0  0  0  0  0  0  0
    4.8305    0.1304    0.0000 C   0  0  0  0  0  0  0  0  0  0  0  0
    5.8806   -1.3177    0.0000 C   0  0  0  0  0  0  0  0  0  0  0  0
    3.0791   -0.4927    0.0000 C   0  0  0  0  0  0  0  0  0  0  0  0
    2.3645   -0.9052    0.0000 C   0  0  0  0  0  0  0  0  0  0  0  0
    3.0791   -2.1427    0.0000 C   0  0  0  0  0  0  0  0  0  0  0  0
    4.2795    0.7445    0.0000 C   0  0  0  0  0  0  0  0  0  0  0  0
    2.3645   -1.7302    0.0000 C   0  0  0  0  0  0  0  0  0  0  0  0
    6.2932   -2.0322    0.0000 C   0  0  0  0  0  0  0  0  0  0  0  0
    6.2932   -0.6033    0.0000 C   0  0  0  0  0  0  0  0  0  0  0  0
    1.6500   -0.4927    0.0000 C   0  0  0  0  0  0  0  0  0  0  0  0
    7.5307   -1.3177    0.0000 C   0  0  0  0  0  0  0  0  0  0  0  0
    7.1182   -2.0322    0.0000 C   0  0  0  0  0  0  0  0  0  0  0  0
    7.1182   -0.6033    0.0000 C   0  0  0  0  0  0  0  0  0  0  0  0
    3.9848    2.1427    0.0000 C   0  0  0  0  0  0  0  0  0  0  0  0
    5.3431    1.6988    0.0000 C   0  0  0  0  0  0  0  0  0  0  0  0
    8.3557   -1.3177    0.0000 C   0  0  0  0  0  0  0  0  0  0  0  0
  1 13  2  0
  2  5  1  0
  2  7  1  0
  2 10  1  0
  3  6  1  0
  3  7  2  0
  4 13  1  0
  4 21  1  0
  4 22  1  0
  5  6  2  0
  5  8  1  0
  6  9  1  0
  7 12  1  0
  8 13  1  0
  9 15  2  0
  9 16  1  0
 10 11  2  0
 11 14  1  0
 11 17  1  0
 12 14  2  0
 15 19  1  0
 16 20  2  0
 18 19  2  0
 18 20  1  0
 18 23  1  0
M  END
$$$$
