383
     RDKit          2D

 25 27  0  0  1  0  0  0  0  0999 V2000
    1.9058    0.1915    0.0000 O   0  0  0  0  0  0  0  0  0  0  0  0
    3.9683   -0.5231    0.0000 O   0  0  0  0  0  0  0  0  0  0  0  0
    3.9683    0.9060    0.0000 O   0  0  0  0  0  0  0  0  0  0  0  0
    6.0309   -1.2375    0.0000 N   0  0  0  0  0  0  0  0  0  0  0  0
    4.7934   -1.9520    0.0000 N   0  0  0  0  0  0  0  0  0  0  0  0
    2.7308    1.0165    0.0000 C   0  0  0  0  0  0  0  0  0  0  0  0
    2.0163    1.4290    0.0000 C   0  0  0  0  0  0  0  0  0  0  0  0
    3.4453    1.4290    0.0000 C   0  0  0  0  0  0  0  0  0  0  0  0
    2.7308    0.1915    0.0000 C   0  0  0  0  0  0  0  0  0  0  0  0
    2.0163    2.2540    0.0000 C   0  0  0  0  0  0  0  0  0  0  0  0
    3.4453    2.2540    0.0000 C   0  0  0  0  0  0  0  0  0  0  0  0
    2.7308    2.6665    0.0000 C   0  0  0  0  0  0  0  0  0  0  0  0
    2.7308   -0.6335    0.0000 C   0  0  0  0  0  0  0  0  0  0  0  0
    3.5558    0.1915    0.0000 C   0  0  0  0  0  0  0  0  0  0  0  0
    3.4453   -1.0460    0.0000 C   0  0  0  0  0  0  0  0  0  0  0  0
    2.0163   -1.0460    0.0000 C   0  0  0  0  0  0  0  0  0  0  0  0
    4.7934   -0.5231    0.0000 C   0  0  0  0  0  0  0  0  0  0  0  0
    3.4453   -1.8711    0.0000 C   0  0  0  0  0  0  0  0  0  0  0  0
    2.0163   -1.8711    0.0000 C   0  0  0  0  0  0  0  0  0  0  0  0
    5.2059   -1.2375    0.0000 C   0  0  0  0  0  0  0  0  0  0  0  0
    6.4434   -1.9520    0.0000 C   0  0  0  0  0  0  0  0  0  0  0  0
    6.0309   -2.6665    0.0000 C   0  0  0  0  0  0  0  0  0  0  0  0
    2.7308   -2.2836    0.0000 C   0  0  0  0  0  0  0  0  0  0  0  0
    5.2059   -2.6665    0.0000 C   0  0  0  0  0  0  0  0  0  0  0  0
    6.4434   -0.5231    0.0000 C   0  0  0  0  0  0  0  0  0  0  0  0
  1  9  1  0
  2 14  1  0
  2 17  1  0
  3 14  2  0
  4 20  1  0
  4 21  1  0
  4 25  1  0
  5 20  2  0
  5 24  1  0
  6  7  1  0
  6  8  1  0
  6  9  1  0
  7 10  1  0
  8 11  1  0
  9 13  1  0
  9 14  1  0
 10 12  1  0
 11 12  1  0
 13 15  2  0
 13 16  1  0
 15 18  1  0
 16 19  2  0
 17 20  1  0
 18 23  2  0
 19 23  1  0
 21 22  1  0
 22 24  1  0
M  END
$$$$
