812
     RDKit          2D

 23 25  0  0  0  0  0  0  0  0999 V2000
    3.9995    1.1186    0.0000 O   0  0  0  0  0  0  0  0  0  0  0  0
    1.6500   -0.5884    0.0000 O   0  0  0  0  0  0  0  0  0  0  0  0
    3.7695   -0.3335    0.0000 N   0  0  0  0  0  0  0  0  0  0  0  0
    3.1021   -0.8184    0.0000 N   0  0  0  0  0  0  0  0  0  0  0  0
    2.6896    0.4512    0.0000 C   0  0  0  0  0  0  0  0  0  0  0  0
    2.2047    1.1186    0.0000 C   0  0  0  0  0  0  0  0  0  0  0  0
    3.5146    0.4512    0.0000 C   0  0  0  0  0  0  0  0  0  0  0  0
    2.4347   -0.3335    0.0000 C   0  0  0  0  0  0  0  0  0  0  0  0
    2.5402    1.8723    0.0000 C   0  0  0  0  0  0  0  0  0  0  0  0
    2.0553    2.5397    0.0000 C   0  0  0  0  0  0  0  0  0  0  0  0
    4.5541   -0.5884    0.0000 C   0  0  0  0  0  0  0  0  0  0  0  0
    3.1021   -1.6434    0.0000 C   0  0  0  0  0  0  0  0  0  0  0  0
    2.3909    3.2934    0.0000 C   0  0  0  0  0  0  0  0  0  0  0  0
    5.1672   -0.0364    0.0000 C   0  0  0  0  0  0  0  0  0  0  0  0
    3.8166   -2.0559    0.0000 C   0  0  0  0  0  0  0  0  0  0  0  0
    4.7257   -1.3954    0.0000 C   0  0  0  0  0  0  0  0  0  0  0  0
    2.3876   -2.0559    0.0000 C   0  0  0  0  0  0  0  0  0  0  0  0
    5.9518   -0.2913    0.0000 C   0  0  0  0  0  0  0  0  0  0  0  0
    3.8166   -2.8809    0.0000 C   0  0  0  0  0  0  0  0  0  0  0  0
    5.5103   -1.6503    0.0000 C   0  0  0  0  0  0  0  0  0  0  0  0
    2.3876   -2.8809    0.0000 C   0  0  0  0  0  0  0  0  0  0  0  0
    6.1234   -1.0982    0.0000 C   0  0  0  0  0  0  0  0  0  0  0  0
    3.1021   -3.2934    0.0000 C   0  0  0  0  0  0  0  0  0  0  0  0
  1  7  2  0
  2  8  2  0
  3  4  1  0
  3  7  1  0
  3 11  1  0
  4  8  1  0
  4 12  1  0
  5  6  1  0
  5  7  1  0
  5  8  1  0
  6  9  1  0
  9 10  1  0
 10 13  1  0
 11 14  2  0
 11 16  1  0
 12 15  2  0
 12 17  1  0
 14 18  1  0
 15 19  1  0
 16 20  2  0
 17 21  2  0
 18 22  2  0
 19 23  2  0
 20 22  1  0
 21 23  1  0
M  END
$$$$
