751
     RDKit          2D

 19 22  0  0  1  0  0  0  0  0999 V2000
    3.5990   -0.4158    0.0000 N   0  0  0  0  0  0  0  0  0  0  0  0
    2.7164   -1.3358    0.0000 N   0  0  0  0  0  0  0  0  0  0  0  0
    4.0629   -1.7442    0.0000 N   0  0  0  0  0  0  0  0  0  0  0  0
    2.8853   -0.0722    0.0000 C   0  0  0  0  0  0  0  0  0  0  0  0
    2.7091    0.7001    0.0000 C   0  0  0  0  0  0  0  0  0  0  0  0
    2.3427   -0.6427    0.0000 C   0  0  0  0  0  0  0  0  0  0  0  0
    4.3126   -0.0722    0.0000 C   0  0  0  0  0  0  0  0  0  0  0  0
    3.2029    1.3193    0.0000 C   0  0  0  0  0  0  0  0  0  0  0  0
    3.9951    1.3193    0.0000 C   0  0  0  0  0  0  0  0  0  0  0  0
    4.4889    0.7001    0.0000 C   0  0  0  0  0  0  0  0  0  0  0  0
    3.4913   -1.1959    0.0000 C   0  0  0  0  0  0  0  0  0  0  0  0
    1.8914    0.8104    0.0000 C   0  0  0  0  0  0  0  0  0  0  0  0
    2.9133    2.0918    0.0000 C   0  0  0  0  0  0  0  0  0  0  0  0
    4.9087   -0.6426    0.0000 C   0  0  0  0  0  0  0  0  0  0  0  0
    5.2734    0.9553    0.0000 C   0  0  0  0  0  0  0  0  0  0  0  0
    1.5842    1.5760    0.0000 C   0  0  0  0  0  0  0  0  0  0  0  0
    2.0985    2.2212    0.0000 C   0  0  0  0  0  0  0  0  0  0  0  0
    5.6990   -0.4056    0.0000 C   0  0  0  0  0  0  0  0  0  0  0  0
    5.8826    0.3989    0.0000 C   0  0  0  0  0  0  0  0  0  0  0  0
  1  4  1  0
  1  7  1  0
  1 11  1  0
  2  6  1  0
  2 11  2  0
  3 11  1  0
  4  5  1  0
  4  6  1  0
  5  8  2  0
  5 12  1  0
  7 10  2  0
  7 14  1  0
  8  9  1  0
  8 13  1  0
  9 10  1  0
 10 15  1  0
 12 16  2  0
 13 17  2  0
 14 18  2  0
 15 19  2  0
 16 17  1  0
 18 19  1  0
M  END
$$$$
