
     RDKit          2D

 21 23  0  0  1  0  0  0  0  0999 V2000
    2.3645    0.6188    0.0000 Cl  0  0  0  0  0  0  0  0  0  0  0  0
    6.7176   -1.6952    0.0000 S   0  0  0  0  0  0  0  0  0  0  0  0
    4.5080   -0.6188    0.0000 N   0  0  0  0  0  0  0  0  0  0  0  0
    4.5080   -1.4438    0.0000 C   0  0  0  0  0  0  0  0  0  0  0  0
    5.2224   -0.2063    0.0000 C   0  0  0  0  0  0  0  0  0  0  0  0
    3.7935   -0.2063    0.0000 C   0  0  0  0  0  0  0  0  0  0  0  0
    5.2224   -1.8563    0.0000 C   0  0  0  0  0  0  0  0  0  0  0  0
    5.9370   -0.6188    0.0000 C   0  0  0  0  0  0  0  0  0  0  0  0
    5.9370   -1.4438    0.0000 C   0  0  0  0  0  0  0  0  0  0  0  0
    3.0791   -0.6188    0.0000 C   0  0  0  0  0  0  0  0  0  0  0  0
    6.7176   -0.3674    0.0000 C   0  0  0  0  0  0  0  0  0  0  0  0
    7.1991   -1.0313    0.0000 C   0  0  0  0  0  0  0  0  0  0  0  0
    2.3645   -0.2063    0.0000 C   0  0  0  0  0  0  0  0  0  0  0  0
    3.0791   -1.4438    0.0000 C   0  0  0  0  0  0  0  0  0  0  0  0
    1.6500   -0.6188    0.0000 C   0  0  0  0  0  0  0  0  0  0  0  0
    2.3645   -1.8563    0.0000 C   0  0  0  0  0  0  0  0  0  0  0  0
    1.6500   -1.4438    0.0000 C   0  0  0  0  0  0  0  0  0  0  0  0
    3.7935    0.6187    0.0000 C   0  0  0  0  0  0  0  0  0  0  0  0
    3.0790    1.0312    0.0000 O   0  0  0  0  0  0  0  0  0  0  0  0
    4.5080    1.0312    0.0000 O   0  0  0  0  0  0  0  0  0  0  0  0
    5.2224    1.4437    0.0000 C   0  0  0  0  0  0  0  0  0  0  0  0
  1 13  1  0
  2  9  1  0
  2 12  1  0
  3  4  1  0
  3  5  1  0
  3  6  1  0
  4  7  1  0
  5  8  1  0
  6 10  1  0
  7  9  1  0
  8  9  2  0
  8 11  1  0
 10 13  2  0
 10 14  1  0
 11 12  2  0
 13 15  1  0
 14 16  2  0
 15 17  2  0
 16 17  1  0
  6 18  1  1
 18 19  2  0
 18 20  1  0
 20 21  1  0
M  END
$$$$
