867
     RDKit          2D

 21 22  0  0  1  0  0  0  0  0999 V2000
    1.6500   -0.1279    0.0000 O   0  0  0  0  0  0  0  0  0  0  0  0
    2.3645   -3.8405    0.0000 O   0  0  0  0  0  0  0  0  0  0  0  0
    6.6515    3.5847    0.0000 O   0  0  0  0  0  0  0  0  0  0  0  0
    3.0791    0.6971    0.0000 N   0  0  0  0  0  0  0  0  0  0  0  0
    3.0791   -0.1279    0.0000 C   0  0  0  0  0  0  0  0  0  0  0  0
    2.3645   -0.5404    0.0000 C   0  0  0  0  0  0  0  0  0  0  0  0
    3.7935    1.1096    0.0000 C   0  0  0  0  0  0  0  0  0  0  0  0
    3.7935   -0.5404    0.0000 C   0  0  0  0  0  0  0  0  0  0  0  0
    2.3645   -1.3654    0.0000 C   0  0  0  0  0  0  0  0  0  0  0  0
    3.7935    1.9347    0.0000 C   0  0  0  0  0  0  0  0  0  0  0  0
    4.5080    2.3472    0.0000 C   0  0  0  0  0  0  0  0  0  0  0  0
    3.0791   -1.7779    0.0000 C   0  0  0  0  0  0  0  0  0  0  0  0
    1.6500   -1.7779    0.0000 C   0  0  0  0  0  0  0  0  0  0  0  0
    4.5080    3.1722    0.0000 C   0  0  0  0  0  0  0  0  0  0  0  0
    5.2224    1.9347    0.0000 C   0  0  0  0  0  0  0  0  0  0  0  0
    3.0791   -2.6029    0.0000 C   0  0  0  0  0  0  0  0  0  0  0  0
    1.6500   -2.6029    0.0000 C   0  0  0  0  0  0  0  0  0  0  0  0
    2.3645   -3.0154    0.0000 C   0  0  0  0  0  0  0  0  0  0  0  0
    5.2224    3.5847    0.0000 C   0  0  0  0  0  0  0  0  0  0  0  0
    5.9370    2.3472    0.0000 C   0  0  0  0  0  0  0  0  0  0  0  0
    5.9370    3.1722    0.0000 C   0  0  0  0  0  0  0  0  0  0  0  0
  6  1  1  1
  2 18  1  0
  3 21  1  0
  5  4  1  0
  4  7  1  0
  5  6  1  0
  5  8  1  1
  6  9  1  0
  7 10  1  0
  9 12  2  0
  9 13  1  0
 10 11  1  0
 11 14  2  0
 11 15  1  0
 12 16  1  0
 13 17  2  0
 14 19  1  0
 15 20  2  0
 16 18  2  0
 17 18  1  0
 19 21  2  0
 20 21  1  0
M  END
$$$$
