255
     RDKit          2D

 20 21  0  0  0  0  0  0  0  0999 V2000
    3.7935    3.5063    0.0000 O   0  0  0  0  0  0  0  0  0  0  0  0
    3.0791   -3.5063    0.0000 O   0  0  0  0  0  0  0  0  0  0  0  0
    3.7935    0.2063    0.0000 C   0  0  0  0  0  0  0  0  0  0  0  0
    3.0791   -0.2063    0.0000 C   0  0  0  0  0  0  0  0  0  0  0  0
    4.5080   -0.2063    0.0000 C   0  0  0  0  0  0  0  0  0  0  0  0
    2.3645    0.2063    0.0000 C   0  0  0  0  0  0  0  0  0  0  0  0
    3.7935    1.0313    0.0000 C   0  0  0  0  0  0  0  0  0  0  0  0
    3.0791   -1.0313    0.0000 C   0  0  0  0  0  0  0  0  0  0  0  0
    5.2224    0.2063    0.0000 C   0  0  0  0  0  0  0  0  0  0  0  0
    1.6500   -0.2063    0.0000 C   0  0  0  0  0  0  0  0  0  0  0  0
    3.0791    1.4438    0.0000 C   0  0  0  0  0  0  0  0  0  0  0  0
    3.7935   -1.4438    0.0000 C   0  0  0  0  0  0  0  0  0  0  0  0
    4.5080    1.4438    0.0000 C   0  0  0  0  0  0  0  0  0  0  0  0
    2.3645   -1.4438    0.0000 C   0  0  0  0  0  0  0  0  0  0  0  0
    3.0791    2.2688    0.0000 C   0  0  0  0  0  0  0  0  0  0  0  0
    3.7935   -2.2688    0.0000 C   0  0  0  0  0  0  0  0  0  0  0  0
    4.5080    2.2688    0.0000 C   0  0  0  0  0  0  0  0  0  0  0  0
    2.3645   -2.2688    0.0000 C   0  0  0  0  0  0  0  0  0  0  0  0
    3.7935    2.6813    0.0000 C   0  0  0  0  0  0  0  0  0  0  0  0
    3.0791   -2.6813    0.0000 C   0  0  0  0  0  0  0  0  0  0  0  0
  1 19  1  0
  2 20  1  0
  3  4  2  3
  3  5  1  0
  3  7  1  0
  4  6  1  0
  4  8  1  0
  5  9  1  0
  6 10  1  0
  7 11  2  0
  7 13  1  0
  8 12  2  0
  8 14  1  0
 11 15  1  0
 12 16  1  0
 13 17  2  0
 14 18  2  0
 15 19  2  0
 16 20  2  0
 17 19  1  0
 18 20  1  0
M  END
$$$$
