195
     RDKit          2D

 22 23  0  0  1  0  0  0  0  0999 V2000
    2.7770   -3.1491    0.0000 O   0  0  0  0  0  0  0  0  0  0  0  0
    3.4916    1.3885    0.0000 O   0  0  0  0  0  0  0  0  0  0  0  0
    3.4916    3.0385    0.0000 O   0  0  0  0  0  0  0  0  0  0  0  0
    4.9205    3.8636    0.0000 N   0  0  0  0  0  0  0  0  0  0  0  0
    2.0625   -4.3866    0.0000 C   0  0  0  0  0  0  0  0  0  0  0  0
    2.4751   -5.1011    0.0000 C   0  0  0  0  0  0  0  0  0  0  0  0
    1.6500   -5.1011    0.0000 C   0  0  0  0  0  0  0  0  0  0  0  0
    2.0625   -3.5616    0.0000 C   0  0  0  0  0  0  0  0  0  0  0  0
    2.7770   -2.3241    0.0000 C   0  0  0  0  0  0  0  0  0  0  0  0
    3.4916   -1.9116    0.0000 C   0  0  0  0  0  0  0  0  0  0  0  0
    3.4916   -1.0865    0.0000 C   0  0  0  0  0  0  0  0  0  0  0  0
    4.2060    2.6260    0.0000 C   0  0  0  0  0  0  0  0  0  0  0  0
    4.9205    3.0385    0.0000 C   0  0  0  0  0  0  0  0  0  0  0  0
    5.6350    4.2761    0.0000 C   0  0  0  0  0  0  0  0  0  0  0  0
    4.2060    1.8010    0.0000 C   0  0  0  0  0  0  0  0  0  0  0  0
    2.7770   -0.6740    0.0000 C   0  0  0  0  0  0  0  0  0  0  0  0
    4.2060   -0.6740    0.0000 C   0  0  0  0  0  0  0  0  0  0  0  0
    3.4916    0.5635    0.0000 C   0  0  0  0  0  0  0  0  0  0  0  0
    6.3495    3.8636    0.0000 C   0  0  0  0  0  0  0  0  0  0  0  0
    5.6350    5.1011    0.0000 C   0  0  0  0  0  0  0  0  0  0  0  0
    2.7770    0.1510    0.0000 C   0  0  0  0  0  0  0  0  0  0  0  0
    4.2060    0.1510    0.0000 C   0  0  0  0  0  0  0  0  0  0  0  0
  1  8  1  0
  1  9  1  0
  2 15  1  0
  2 18  1  0
  3 12  1  0
  4 13  1  0
  4 14  1  0
  5  6  1  0
  5  7  1  0
  5  8  1  0
  6  7  1  0
  9 10  1  0
 10 11  1  0
 11 16  2  0
 11 17  1  0
 12 13  1  0
 12 15  1  0
 14 19  1  0
 14 20  1  0
 16 21  1  0
 17 22  2  0
 18 21  2  0
 18 22  1  0
M  END
$$$$
