868
     RDKit          2D

 42 42  0  0  0  0  0  0  0  0999 V2000
    8.0804    1.8563    0.0000 O   0  0  0  0  0  0  0  0  0  0  0  0
    8.7949    3.9188    0.0000 O   0  0  0  0  0  0  0  0  0  0  0  0
    6.6515    0.2063    0.0000 O   0  0  0  0  0  0  0  0  0  0  0  0
   10.2239    5.5689    0.0000 O   0  0  0  0  0  0  0  0  0  0  0  0
    5.9370   -1.8563    0.0000 O   0  0  0  0  0  0  0  0  0  0  0  0
    4.5080   -3.5063    0.0000 O   0  0  0  0  0  0  0  0  0  0  0  0
    3.7935   -5.5689    0.0000 O   0  0  0  0  0  0  0  0  0  0  0  0
   10.9383    7.6314    0.0000 O   0  0  0  0  0  0  0  0  0  0  0  0
   12.3674    9.2815    0.0000 O   0  0  0  0  0  0  0  0  0  0  0  0
    2.3645   -5.5689    0.0000 O   0  0  0  0  0  0  0  0  0  0  0  0
   13.0818   11.3440    0.0000 O   0  0  0  0  0  0  0  0  0  0  0  0
    3.0791   -9.2815    0.0000 N   0  0  0  0  0  0  0  0  0  0  0  0
    2.3645  -10.5190    0.0000 C   0  0  0  0  0  0  0  0  0  0  0  0
    2.3645   -9.6940    0.0000 C   0  0  0  0  0  0  0  0  0  0  0  0
    1.6500  -10.9315    0.0000 C   0  0  0  0  0  0  0  0  0  0  0  0
    3.0791   -8.4564    0.0000 C   0  0  0  0  0  0  0  0  0  0  0  0
    1.6500  -11.7565    0.0000 C   0  0  0  0  0  0  0  0  0  0  0  0
    3.7935   -8.0439    0.0000 C   0  0  0  0  0  0  0  0  0  0  0  0
    2.3645   -8.0439    0.0000 C   0  0  0  0  0  0  0  0  0  0  0  0
    3.0791   -6.8064    0.0000 C   0  0  0  0  0  0  0  0  0  0  0  0
    3.7935   -7.2189    0.0000 C   0  0  0  0  0  0  0  0  0  0  0  0
    2.3645   -7.2189    0.0000 C   0  0  0  0  0  0  0  0  0  0  0  0
    8.0804    2.6813    0.0000 C   0  0  0  0  0  0  0  0  0  0  0  0
    8.7949    3.0938    0.0000 C   0  0  0  0  0  0  0  0  0  0  0  0
    7.3659    1.4438    0.0000 C   0  0  0  0  0  0  0  0  0  0  0  0
    7.3659    0.6188    0.0000 C   0  0  0  0  0  0  0  0  0  0  0  0
    9.5094    4.3313    0.0000 C   0  0  0  0  0  0  0  0  0  0  0  0
    9.5094    5.1564    0.0000 C   0  0  0  0  0  0  0  0  0  0  0  0
    6.6515   -0.6188    0.0000 C   0  0  0  0  0  0  0  0  0  0  0  0
    5.9370   -1.0313    0.0000 C   0  0  0  0  0  0  0  0  0  0  0  0
   10.2239    6.3939    0.0000 C   0  0  0  0  0  0  0  0  0  0  0  0
    5.2224   -2.2688    0.0000 C   0  0  0  0  0  0  0  0  0  0  0  0
    5.2224   -3.0938    0.0000 C   0  0  0  0  0  0  0  0  0  0  0  0
   10.9383    6.8064    0.0000 C   0  0  0  0  0  0  0  0  0  0  0  0
    3.0791   -5.9814    0.0000 C   0  0  0  0  0  0  0  0  0  0  0  0
    4.5080   -4.3313    0.0000 C   0  0  0  0  0  0  0  0  0  0  0  0
    3.7935   -4.7439    0.0000 C   0  0  0  0  0  0  0  0  0  0  0  0
   11.6529    8.0439    0.0000 C   0  0  0  0  0  0  0  0  0  0  0  0
   11.6529    8.8689    0.0000 C   0  0  0  0  0  0  0  0  0  0  0  0
   12.3674   10.1065    0.0000 C   0  0  0  0  0  0  0  0  0  0  0  0
   13.0818   10.5190    0.0000 C   0  0  0  0  0  0  0  0  0  0  0  0
   13.7963   11.7565    0.0000 C   0  0  0  0  0  0  0  0  0  0  0  0
  1 23  1  0
  1 25  1  0
  2 24  1  0
  2 27  1  0
  3 26  1  0
  3 29  1  0
  4 28  1  0
  4 31  1  0
  5 30  1  0
  5 32  1  0
  6 33  1  0
  6 36  1  0
  7 35  1  0
  7 37  1  0
  8 34  1  0
  8 38  1  0
  9 39  1  0
  9 40  1  0
 10 35  2  0
 11 41  1  0
 11 42  1  0
 12 14  1  0
 12 16  1  0
 13 14  1  0
 13 15  1  0
 15 17  1  0
 16 18  2  0
 16 19  1  0
 18 21  1  0
 19 22  2  0
 20 21  2  0
 20 22  1  0
 20 35  1  0
 23 24  1  0
 25 26  1  0
 27 28  1  0
 29 30  1  0
 31 34  1  0
 32 33  1  0
 36 37  1  0
 38 39  1  0
 40 41  1  0
M  END
$$$$
