564
     RDKit          2D

 18 20  0  0  0  0  0  0  0  0999 V2000
    4.5536   -1.2161    0.0000 O   0  0  0  0  0  0  0  0  0  0  0  0
    3.8677   -0.0280    0.0000 N   0  0  0  0  0  0  0  0  0  0  0  0
    3.1818   -1.2161    0.0000 N   0  0  0  0  0  0  0  0  0  0  0  0
    4.5814    0.3157    0.0000 C   0  0  0  0  0  0  0  0  0  0  0  0
    3.1540    0.3157    0.0000 C   0  0  0  0  0  0  0  0  0  0  0  0
    4.7576    1.0879    0.0000 C   0  0  0  0  0  0  0  0  0  0  0  0
    2.9778    1.0879    0.0000 C   0  0  0  0  0  0  0  0  0  0  0  0
    4.2637    1.7072    0.0000 C   0  0  0  0  0  0  0  0  0  0  0  0
    3.4717    1.7072    0.0000 C   0  0  0  0  0  0  0  0  0  0  0  0
    5.1774   -0.2547    0.0000 C   0  0  0  0  0  0  0  0  0  0  0  0
    2.5580   -0.2547    0.0000 C   0  0  0  0  0  0  0  0  0  0  0  0
    5.5421    1.3432    0.0000 C   0  0  0  0  0  0  0  0  0  0  0  0
    2.1933    1.3432    0.0000 C   0  0  0  0  0  0  0  0  0  0  0  0
    3.8677   -0.8200    0.0000 C   0  0  0  0  0  0  0  0  0  0  0  0
    5.9676   -0.0177    0.0000 C   0  0  0  0  0  0  0  0  0  0  0  0
    1.7678   -0.0177    0.0000 C   0  0  0  0  0  0  0  0  0  0  0  0
    6.1512    0.7867    0.0000 C   0  0  0  0  0  0  0  0  0  0  0  0
    1.5841    0.7868    0.0000 C   0  0  0  0  0  0  0  0  0  0  0  0
  1 14  2  0
  2  4  1  0
  2  5  1  0
  2 14  1  0
  3 14  1  0
  4  6  2  0
  4 10  1  0
  5  7  2  0
  5 11  1  0
  6  8  1  0
  6 12  1  0
  7  9  1  0
  7 13  1  0
  8  9  2  0
 10 15  2  0
 11 16  2  0
 12 17  2  0
 13 18  2  0
 15 17  1  0
 16 18  1  0
M  END
$$$$
