711
     RDKit          2D

 14 14  0  0  0  0  0  0  0  0999 V2000
    4.5080   -1.2375    0.0000 O   0  0  0  0  0  0  0  0  0  0  0  0
    3.7935    0.0000    0.0000 N   0  0  0  0  0  0  0  0  0  0  0  0
    3.7935    1.6500    0.0000 N   0  0  0  0  0  0  0  0  0  0  0  0
    3.0791   -1.2375    0.0000 N   0  0  0  0  0  0  0  0  0  0  0  0
    4.5080    0.4125    0.0000 C   0  0  0  0  0  0  0  0  0  0  0  0
    3.0791    0.4125    0.0000 C   0  0  0  0  0  0  0  0  0  0  0  0
    4.5080    1.2375    0.0000 C   0  0  0  0  0  0  0  0  0  0  0  0
    3.0791    1.2375    0.0000 C   0  0  0  0  0  0  0  0  0  0  0  0
    3.7935   -0.8250    0.0000 C   0  0  0  0  0  0  0  0  0  0  0  0
    3.7935    2.4751    0.0000 C   0  0  0  0  0  0  0  0  0  0  0  0
    3.0791   -2.0625    0.0000 C   0  0  0  0  0  0  0  0  0  0  0  0
    2.3645   -0.8250    0.0000 C   0  0  0  0  0  0  0  0  0  0  0  0
    2.3645   -2.4751    0.0000 C   0  0  0  0  0  0  0  0  0  0  0  0
    1.6500   -1.2375    0.0000 C   0  0  0  0  0  0  0  0  0  0  0  0
  1  9  2  0
  2  5  1  0
  2  6  1  0
  2  9  1  0
  3  7  1  0
  3  8  1  0
  3 10  1  0
  4  9  1  0
  4 11  1  0
  4 12  1  0
  5  7  1  0
  6  8  1  0
 11 13  1  0
 12 14  1  0
M  END
$$$$
