576
     RDKit          2D

 17 18  0  0  0  0  0  0  0  0999 V2000
    2.4751    0.6631    0.0000 S   0  0  0  0  0  0  0  0  0  0  0  0
    3.9433    1.5651    0.0000 S   0  0  0  0  0  0  0  0  0  0  0  0
    1.6500    0.6631    0.0000 O   0  0  0  0  0  0  0  0  0  0  0  0
    3.3001    0.6631    0.0000 O   0  0  0  0  0  0  0  0  0  0  0  0
    2.4751    1.4882    0.0000 N   0  0  0  0  0  0  0  0  0  0  0  0
    3.2758    2.7212    0.0000 N   0  0  0  0  0  0  0  0  0  0  0  0
    2.4751   -2.6369    0.0000 N   0  0  0  0  0  0  0  0  0  0  0  0
    4.0828    2.8927    0.0000 N   0  0  0  0  0  0  0  0  0  0  0  0
    2.4751   -0.1619    0.0000 C   0  0  0  0  0  0  0  0  0  0  0  0
    1.7606   -0.5744    0.0000 C   0  0  0  0  0  0  0  0  0  0  0  0
    3.1895   -0.5744    0.0000 C   0  0  0  0  0  0  0  0  0  0  0  0
    2.4751   -1.8119    0.0000 C   0  0  0  0  0  0  0  0  0  0  0  0
    1.7606   -1.3994    0.0000 C   0  0  0  0  0  0  0  0  0  0  0  0
    3.1895   -1.3994    0.0000 C   0  0  0  0  0  0  0  0  0  0  0  0
    3.1895    1.9007    0.0000 C   0  0  0  0  0  0  0  0  0  0  0  0
    4.4953    2.1782    0.0000 C   0  0  0  0  0  0  0  0  0  0  0  0
    5.3158    2.0920    0.0000 C   0  0  0  0  0  0  0  0  0  0  0  0
  1  3  2  0
  1  4  2  0
  1  5  1  0
  1  9  1  0
  2 15  1  0
  2 16  1  0
  5 15  1  0
  6  8  1  0
  6 15  2  0
  7 12  1  0
  8 16  2  0
  9 10  2  0
  9 11  1  0
 10 13  1  0
 11 14  2  0
 12 13  2  0
 12 14  1  0
 16 17  1  0
M  END
$$$$
