691
     RDKit          2D

 36 38  0  0  1  0  0  0  0  0999 V2000
    3.0790    1.5221    0.0000 O   0  0  0  0  0  0  0  0  0  0  0  0
    3.7935    3.5847    0.0000 O   0  0  0  0  0  0  0  0  0  0  0  0
    8.1348    2.7795    0.0000 O   0  0  0  0  0  0  0  0  0  0  0  0
    8.1348    1.0898    0.0000 O   0  0  0  0  0  0  0  0  0  0  0  0
    3.0790    2.3471    0.0000 O   0  0  0  0  0  0  0  0  0  0  0  0
    2.3645   -2.1904    0.0000 O   0  0  0  0  0  0  0  0  0  0  0  0
    1.6500   -0.9529    0.0000 O   0  0  0  0  0  0  0  0  0  0  0  0
    4.5079    1.5221    0.0000 N   0  0  0  0  0  0  0  0  0  0  0  0
    3.0790   -0.1279    0.0000 N   0  0  0  0  0  0  0  0  0  0  0  0
    4.5079    2.3471    0.0000 C   0  0  0  0  0  0  0  0  0  0  0  0
    5.2224    2.7597    0.0000 C   0  0  0  0  0  0  0  0  0  0  0  0
    5.2224    1.1096    0.0000 C   0  0  0  0  0  0  0  0  0  0  0  0
    5.9369    2.3471    0.0000 C   0  0  0  0  0  0  0  0  0  0  0  0
    5.9369    1.5221    0.0000 C   0  0  0  0  0  0  0  0  0  0  0  0
    3.7935    0.2846    0.0000 C   0  0  0  0  0  0  0  0  0  0  0  0
    3.7935    1.1096    0.0000 C   0  0  0  0  0  0  0  0  0  0  0  0
    3.0790   -0.9529    0.0000 C   0  0  0  0  0  0  0  0  0  0  0  0
    6.6744    2.7883    0.0000 C   0  0  0  0  0  0  0  0  0  0  0  0
    3.7935    2.7597    0.0000 C   0  0  0  0  0  0  0  0  0  0  0  0
    6.6744    1.0810    0.0000 C   0  0  0  0  0  0  0  0  0  0  0  0
    3.7935   -1.3654    0.0000 C   0  0  0  0  0  0  0  0  0  0  0  0
    4.5079   -0.1279    0.0000 C   0  0  0  0  0  0  0  0  0  0  0  0
    7.4219    2.3643    0.0000 C   0  0  0  0  0  0  0  0  0  0  0  0
    7.4219    1.5050    0.0000 C   0  0  0  0  0  0  0  0  0  0  0  0
    3.7935   -2.1904    0.0000 C   0  0  0  0  0  0  0  0  0  0  0  0
    2.3645   -1.3654    0.0000 C   0  0  0  0  0  0  0  0  0  0  0  0
    4.5079   -2.6029    0.0000 C   0  0  0  0  0  0  0  0  0  0  0  0
    5.2224   -2.1904    0.0000 C   0  0  0  0  0  0  0  0  0  0  0  0
    4.5079   -3.4279    0.0000 C   0  0  0  0  0  0  0  0  0  0  0  0
    8.1316    3.6045    0.0000 C   0  0  0  0  0  0  0  0  0  0  0  0
    8.1316    0.2647    0.0000 C   0  0  0  0  0  0  0  0  0  0  0  0
    1.6500   -2.6029    0.0000 C   0  0  0  0  0  0  0  0  0  0  0  0
    5.9369   -2.6029    0.0000 C   0  0  0  0  0  0  0  0  0  0  0  0
    5.2224   -3.8404    0.0000 C   0  0  0  0  0  0  0  0  0  0  0  0
    5.9369   -3.4279    0.0000 C   0  0  0  0  0  0  0  0  0  0  0  0
    1.6500   -3.4279    0.0000 C   0  0  0  0  0  0  0  0  0  0  0  0
  1 16  2  0
  2 19  1  0
  3 23  1  0
  3 30  1  0
  4 24  1  0
  4 31  1  0
  5 19  2  0
  6 26  1  0
  6 32  1  0
  7 26  2  0
  8 10  1  0
  8 12  1  0
  8 16  1  0
 15  9  1  0
 17  9  1  0
 10 11  1  0
 10 19  1  6
 11 13  1  0
 12 14  1  0
 13 14  2  0
 13 18  1  0
 14 20  1  0
 15 16  1  0
 15 22  1  6
 17 21  1  1
 17 26  1  0
 18 23  2  0
 20 24  2  0
 21 25  1  0
 23 24  1  0
 25 27  1  0
 27 28  2  0
 27 29  1  0
 28 33  1  0
 29 34  2  0
 32 36  1  0
 33 35  2  0
 34 35  1  0
M  END
$$$$
