
     RDKit          2D

 23 25  0  0  0  0  0  0  0  0999 V2000
    1.0993   -0.0375    0.0000 C   0  0  0  0  0  0  0  0  0  0  0  0
    1.8138    0.3749    0.0000 C   0  0  0  0  0  0  0  0  0  0  0  0
    1.8138    1.1999    0.0000 C   0  0  0  0  0  0  0  0  0  0  0  0
    1.0993    1.6124    0.0000 C   0  0  0  0  0  0  0  0  0  0  0  0
    0.3847    0.3749    0.0000 C   0  0  0  0  0  0  0  0  0  0  0  0
    0.3847    1.1999    0.0000 C   0  0  0  0  0  0  0  0  0  0  0  0
   -1.0441    0.3749    0.0000 C   0  0  0  0  0  0  0  0  0  0  0  0
   -2.4730    0.3749    0.0000 C   0  0  0  0  0  0  0  0  0  0  0  0
   -1.7586   -0.0375    0.0000 C   0  0  0  0  0  0  0  0  0  0  0  0
   -1.7586   -0.8625    0.0000 C   0  0  0  0  0  0  0  0  0  0  0  0
   -0.3296   -0.0375    0.0000 C   0  0  0  0  0  0  0  0  0  0  0  0
   -0.3296   -0.8625    0.0000 O   0  0  0  0  0  0  0  0  0  0  0  0
   -0.3296    1.6124    0.0000 O   0  0  0  0  0  0  0  0  0  0  0  0
   -1.0441    1.1999    0.0000 C   0  0  0  0  0  0  0  0  0  0  0  0
   -1.7586    1.6124    0.0000 O   0  0  0  0  0  0  0  0  0  0  0  0
   -3.1875   -0.0375    0.0000 C   0  0  0  0  0  0  0  0  0  0  0  0
   -2.4730    1.2000    0.0000 C   0  0  0  0  0  0  0  0  0  0  0  0
   -3.1874    1.6125    0.0000 C   0  0  0  0  0  0  0  0  0  0  0  0
   -3.9019    1.2000    0.0000 C   0  0  0  0  0  0  0  0  0  0  0  0
   -3.9019    0.3750    0.0000 C   0  0  0  0  0  0  0  0  0  0  0  0
   -2.4730   -1.2750    0.0000 C   0  0  0  0  0  0  0  0  0  0  0  0
   -3.1875   -0.8624    0.0000 O   0  0  0  0  0  0  0  0  0  0  0  0
   -2.4730   -2.1000    0.0000 C   0  0  0  0  0  0  0  0  0  0  0  0
  1  2  2  0
  1  5  1  0
  2  3  1  0
  3  4  2  0
  4  6  1  0
 11  5  1  0
  6  5  2  0
  6 13  1  0
 11  7  2  0
 13 14  1  0
 14  7  1  0
  7  9  1  0
  9  8  1  0
  8 16  2  0
  9 10  1  0
 11 12  1  0
 14 15  2  0
 17 18  2  0
 18 19  1  0
 19 20  2  0
  8 17  1  0
 20 16  1  0
 10 21  1  0
 21 22  2  0
 21 23  1  0
M  END
$$$$
