774
     RDKit          2D

 20 21  0  0  0  0  0  0  0  0999 V2000
    5.3809   -0.6133    0.0000 S   0  0  0  0  0  0  0  0  0  0  0  0
    2.6841   -0.8041    0.0000 S   0  0  0  0  0  0  0  0  0  0  0  0
    2.0522    0.7546    0.0000 F   0  0  0  0  0  0  0  0  0  0  0  0
    3.3162    1.8151    0.0000 F   0  0  0  0  0  0  0  0  0  0  0  0
    2.1538    1.9168    0.0000 F   0  0  0  0  0  0  0  0  0  0  0  0
    5.7851   -1.3325    0.0000 O   0  0  0  0  0  0  0  0  0  0  0  0
    4.9602   -1.3229    0.0000 O   0  0  0  0  0  0  0  0  0  0  0  0
    2.0522   -0.2739    0.0000 O   0  0  0  0  0  0  0  0  0  0  0  0
    3.3162   -1.3345    0.0000 O   0  0  0  0  0  0  0  0  0  0  0  0
    5.3809    1.0940    0.0000 N   0  0  0  0  0  0  0  0  0  0  0  0
    6.1285   -0.1893    0.0000 N   0  0  0  0  0  0  0  0  0  0  0  0
    2.1538   -1.4362    0.0000 N   0  0  0  0  0  0  0  0  0  0  0  0
    4.6434   -0.1722    0.0000 C   0  0  0  0  0  0  0  0  0  0  0  0
    4.6434    0.6528    0.0000 C   0  0  0  0  0  0  0  0  0  0  0  0
    3.2144   -0.1722    0.0000 C   0  0  0  0  0  0  0  0  0  0  0  0
    3.2144    0.6528    0.0000 C   0  0  0  0  0  0  0  0  0  0  0  0
    3.9289   -0.5847    0.0000 C   0  0  0  0  0  0  0  0  0  0  0  0
    6.1285    0.6700    0.0000 C   0  0  0  0  0  0  0  0  0  0  0  0
    3.9289    1.0653    0.0000 C   0  0  0  0  0  0  0  0  0  0  0  0
    2.6841    1.2848    0.0000 C   0  0  0  0  0  0  0  0  0  0  0  0
  1  6  2  0
  1  7  2  0
  1 11  1  0
  1 13  1  0
  2  8  2  0
  2  9  2  0
  2 12  1  0
  2 15  1  0
  3 20  1  0
  4 20  1  0
  5 20  1  0
 10 14  1  0
 10 18  1  0
 11 18  1  0
 13 14  2  0
 13 17  1  0
 14 19  1  0
 15 16  1  0
 15 17  2  0
 16 19  2  0
 16 20  1  0
M  END
$$$$
