675
     RDKit          2D

 28 30  0  0  0  0  0  0  0  0999 V2000
    4.5080   -1.2375    0.0000 O   0  0  0  0  0  0  0  0  0  0  0  0
    3.0791   -2.8876    0.0000 N   0  0  0  0  0  0  0  0  0  0  0  0
    4.5080    2.0625    0.0000 C   0  0  0  0  0  0  0  0  0  0  0  0
    3.7935    2.4751    0.0000 C   0  0  0  0  0  0  0  0  0  0  0  0
    4.5080    1.2375    0.0000 C   0  0  0  0  0  0  0  0  0  0  0  0
    3.7935    3.3001    0.0000 C   0  0  0  0  0  0  0  0  0  0  0  0
    5.2224    2.4751    0.0000 C   0  0  0  0  0  0  0  0  0  0  0  0
    3.0791    2.0625    0.0000 C   0  0  0  0  0  0  0  0  0  0  0  0
    5.2224    0.8250    0.0000 C   0  0  0  0  0  0  0  0  0  0  0  0
    3.7935    0.8250    0.0000 C   0  0  0  0  0  0  0  0  0  0  0  0
    3.0791    3.7126    0.0000 C   0  0  0  0  0  0  0  0  0  0  0  0
    4.5080   -0.4125    0.0000 C   0  0  0  0  0  0  0  0  0  0  0  0
    5.2224    0.0000    0.0000 C   0  0  0  0  0  0  0  0  0  0  0  0
    3.7935    0.0000    0.0000 C   0  0  0  0  0  0  0  0  0  0  0  0
    5.2224    3.3001    0.0000 C   0  0  0  0  0  0  0  0  0  0  0  0
    5.9370    2.0625    0.0000 C   0  0  0  0  0  0  0  0  0  0  0  0
    3.0791    1.2375    0.0000 C   0  0  0  0  0  0  0  0  0  0  0  0
    2.3645    2.4751    0.0000 C   0  0  0  0  0  0  0  0  0  0  0  0
    3.7935   -2.4751    0.0000 C   0  0  0  0  0  0  0  0  0  0  0  0
    3.7935   -1.6500    0.0000 C   0  0  0  0  0  0  0  0  0  0  0  0
    5.9370    3.7126    0.0000 C   0  0  0  0  0  0  0  0  0  0  0  0
    6.6515    2.4751    0.0000 C   0  0  0  0  0  0  0  0  0  0  0  0
    2.3645    0.8250    0.0000 C   0  0  0  0  0  0  0  0  0  0  0  0
    1.6500    2.0625    0.0000 C   0  0  0  0  0  0  0  0  0  0  0  0
    6.6515    3.3001    0.0000 C   0  0  0  0  0  0  0  0  0  0  0  0
    1.6500    1.2375    0.0000 C   0  0  0  0  0  0  0  0  0  0  0  0
    3.0791   -3.7126    0.0000 C   0  0  0  0  0  0  0  0  0  0  0  0
    2.3645   -2.4751    0.0000 C   0  0  0  0  0  0  0  0  0  0  0  0
  1 12  1  0
  1 20  1  0
  2 19  1  0
  2 27  1  0
  2 28  1  0
  3  4  2  0
  3  5  1  0
  3  7  1  0
  4  6  1  0
  4  8  1  0
  5  9  2  0
  5 10  1  0
  6 11  1  0
  7 15  2  0
  7 16  1  0
  8 17  2  0
  8 18  1  0
  9 13  1  0
 10 14  2  0
 12 13  2  0
 12 14  1  0
 15 21  1  0
 16 22  2  0
 17 23  1  0
 18 24  2  0
 19 20  1  0
 21 25  2  0
 22 25  1  0
 23 26  2  0
 24 26  1  0
M  END
$$$$
