291
     RDKit          2D

 19 19  0  0  0  0  0  0  0  0999 V2000
    2.3645    3.8405    0.0000 Cl  0  0  0  0  0  0  0  0  0  0  0  0
    5.2224    3.8405    0.0000 Cl  0  0  0  0  0  0  0  0  0  0  0  0
    2.3645   -3.5847    0.0000 O   0  0  0  0  0  0  0  0  0  0  0  0
    1.6500   -2.3472    0.0000 O   0  0  0  0  0  0  0  0  0  0  0  0
    3.7935    2.1904    0.0000 N   0  0  0  0  0  0  0  0  0  0  0  0
    3.7935    1.3654    0.0000 C   0  0  0  0  0  0  0  0  0  0  0  0
    3.7935   -1.1096    0.0000 C   0  0  0  0  0  0  0  0  0  0  0  0
    3.7935   -0.2846    0.0000 C   0  0  0  0  0  0  0  0  0  0  0  0
    3.0791   -1.5222    0.0000 C   0  0  0  0  0  0  0  0  0  0  0  0
    3.0791    2.6029    0.0000 C   0  0  0  0  0  0  0  0  0  0  0  0
    4.5080    2.6029    0.0000 C   0  0  0  0  0  0  0  0  0  0  0  0
    3.0791    0.9529    0.0000 C   0  0  0  0  0  0  0  0  0  0  0  0
    4.5080    0.9529    0.0000 C   0  0  0  0  0  0  0  0  0  0  0  0
    3.0791    0.1279    0.0000 C   0  0  0  0  0  0  0  0  0  0  0  0
    4.5080    0.1279    0.0000 C   0  0  0  0  0  0  0  0  0  0  0  0
    3.0791   -2.3472    0.0000 C   0  0  0  0  0  0  0  0  0  0  0  0
    3.0791    3.4280    0.0000 C   0  0  0  0  0  0  0  0  0  0  0  0
    4.5080    3.4280    0.0000 C   0  0  0  0  0  0  0  0  0  0  0  0
    2.3645   -2.7597    0.0000 C   0  0  0  0  0  0  0  0  0  0  0  0
  1 17  1  0
  2 18  1  0
  3 19  1  0
  4 19  2  0
  5  6  1  0
  5 10  1  0
  5 11  1  0
  6 12  2  0
  6 13  1  0
  7  8  1  0
  7  9  1  0
  8 14  2  0
  8 15  1  0
  9 16  1  0
 10 17  1  0
 11 18  1  0
 12 14  1  0
 13 15  2  0
 16 19  1  0
M  END
$$$$
