 
     RDKit          2D

 23 25  0  0  0  0  0  0  0  0999 V2000
   17.2936  -10.3134    0.0000 C   0  0  0  0  0  0  0  0  0  0  0  0
   17.2797  -11.1354    0.0000 C   0  0  0  0  0  0  0  0  0  0  0  0
   18.0115   -9.9111    0.0000 C   0  0  0  0  0  0  0  0  0  0  0  0
   16.5825   -9.8868    0.0000 C   0  0  0  0  0  0  0  0  0  0  0  0
   17.9837  -11.5550    0.0000 S   0  0  0  0  0  0  0  0  0  0  0  0
   16.5617  -11.5377    0.0000 C   0  0  0  0  0  0  0  0  0  0  0  0
   18.7155  -10.3342    0.0000 C   0  0  0  0  0  0  0  0  0  0  0  0
   18.0254   -9.0857    0.0000 O   0  0  0  0  0  0  0  0  0  0  0  0
   15.8647  -10.2960    0.0000 C   0  0  0  0  0  0  0  0  0  0  0  0
   18.7017  -11.1562    0.0000 N   0  0  0  0  0  0  0  0  0  0  0  0
   18.6114  -12.1411    0.0000 O   0  0  0  0  0  0  0  0  0  0  0  0
   17.2832  -12.1828    0.0000 O   0  0  0  0  0  0  0  0  0  0  0  0
   15.8543  -11.1215    0.0000 C   0  0  0  0  0  0  0  0  0  0  0  0
   19.4369   -9.9319    0.0000 C   0  0  0  0  0  0  0  0  0  0  0  0
   19.4161  -11.5793    0.0000 C   0  0  0  0  0  0  0  0  0  0  0  0
   20.1479  -10.3585    0.0000 N   0  0  0  0  0  0  0  0  0  0  0  0
   19.4508   -9.1064    0.0000 O   0  0  0  0  0  0  0  0  0  0  0  0
   20.8693   -9.9561    0.0000 C   0  0  0  0  0  0  0  0  0  0  0  0
   21.6591  -10.1868    0.0000 N   0  0  0  0  0  0  0  0  0  0  0  0
   20.8452   -9.1265    0.0000 S   0  0  0  0  0  0  0  0  0  0  0  0
   22.1258   -9.5071    0.0000 C   0  0  0  0  0  0  0  0  0  0  0  0
   21.6250   -8.8524    0.0000 C   0  0  0  0  0  0  0  0  0  0  0  0
   21.8535   -8.0574    0.0000 C   0  0  0  0  0  0  0  0  0  0  0  0
  1  2  2  0
  1  3  1  0
  1  4  1  0
  2  5  1  0
  2  6  1  0
  3  7  2  0
  3  8  1  0
  4  9  2  0
  5 10  1  0
  5 11  2  0
  5 12  2  0
  6 13  2  0
  7 14  1  0
 10 15  1  0
 14 16  1  0
 14 17  2  0
 16 18  1  0
 18 19  2  0
 18 20  1  0
 19 21  1  0
 20 22  1  0
 22 23  1  0
  7 10  1  0
  9 13  1  0
 21 22  2  0
M  END
$$$$
