 
     RDKit          2D

 28 30  0  0  0  0  0  0  0  0999 V2000
   17.7326   -9.2768    0.0000 C   0  0  0  0  0  0  0  0  0  0  0  0
   18.4412   -8.8604    0.0000 S   0  0  0  0  0  0  0  0  0  0  0  0
   17.7326  -10.0986    0.0000 C   0  0  0  0  0  0  0  0  0  0  0  0
   17.0204   -8.8604    0.0000 C   0  0  0  0  0  0  0  0  0  0  0  0
   19.1571   -9.2768    0.0000 N   0  0  0  0  0  0  0  0  0  0  0  0
   17.7290   -8.2760    0.0000 O   0  0  0  0  0  0  0  0  0  0  0  0
   19.1790   -8.2760    0.0000 O   0  0  0  0  0  0  0  0  0  0  0  0
   17.0204  -10.5076    0.0000 C   0  0  0  0  0  0  0  0  0  0  0  0
   16.3118   -9.2768    0.0000 C   0  0  0  0  0  0  0  0  0  0  0  0
   19.8693   -8.8604    0.0000 C   0  0  0  0  0  0  0  0  0  0  0  0
   16.3118  -10.0986    0.0000 C   0  0  0  0  0  0  0  0  0  0  0  0
   19.8620   -8.0386    0.0000 C   0  0  0  0  0  0  0  0  0  0  0  0
   20.5815   -9.2695    0.0000 N   0  0  0  0  0  0  0  0  0  0  0  0
   15.5959  -10.5076    0.0000 N   0  0  0  0  0  0  0  0  0  0  0  0
   20.5742   -7.6258    0.0000 C   0  0  0  0  0  0  0  0  0  0  0  0
   21.2937   -8.8568    0.0000 C   0  0  0  0  0  0  0  0  0  0  0  0
   14.7705  -10.0730    0.0000 N   0  0  0  0  0  0  0  0  0  0  0  0
   21.2901   -8.0350    0.0000 C   0  0  0  0  0  0  0  0  0  0  0  0
   13.9633  -10.5406    0.0000 C   0  0  0  0  0  0  0  0  0  0  0  0
   13.9633  -11.4755    0.0000 C   0  0  0  0  0  0  0  0  0  0  0  0
   13.1562  -10.0730    0.0000 C   0  0  0  0  0  0  0  0  0  0  0  0
   13.1562  -11.9430    0.0000 C   0  0  0  0  0  0  0  0  0  0  0  0
   12.3452  -10.5406    0.0000 C   0  0  0  0  0  0  0  0  0  0  0  0
   12.3490  -11.4755    0.0000 C   0  0  0  0  0  0  0  0  0  0  0  0
   13.1562  -12.8781    0.0000 C   0  0  0  0  0  0  0  0  0  0  0  0
   11.5381  -11.9468    0.0000 O   0  0  0  0  0  0  0  0  0  0  0  0
   13.9670  -13.3455    0.0000 O   0  0  0  0  0  0  0  0  0  0  0  0
   12.3490  -13.3455    0.0000 O   0  0  0  0  0  0  0  0  0  0  0  0
  1  2  1  0
  1  3  2  0
  1  4  1  0
  2  5  1  0
  2  6  2  0
  2  7  2  0
  3  8  1  0
  4  9  2  0
  5 10  1  0
  8 11  2  0
 10 12  2  0
 10 13  1  0
 11 14  1  0
 12 15  1  0
 13 16  2  0
 14 17  2  0
 15 18  2  0
 17 19  1  0
 19 20  2  0
 19 21  1  0
 20 22  1  0
 21 23  2  0
 22 24  2  0
 22 25  1  0
 24 26  1  0
 25 27  1  0
 25 28  2  0
  9 11  1  0
 16 18  1  0
 23 24  1  0
M  END
$$$$
