
     RDKit          2D

 13 13  0  0  0  0  0  0  0  0999 V2000
   -1.7705   -1.2577    0.0000 C   0  0  0  0  0  0  0  0  0  0  0  0
   -2.0231   -0.4742    0.0000 N   0  0  0  0  0  0  0  0  0  0  0  0
   -1.3587    0.0452    0.0000 C   0  0  0  0  0  0  0  0  0  0  0  0
   -0.7174   -0.4427    0.0000 C   0  0  0  0  0  0  0  0  0  0  0  0
   -0.9428   -1.2577    0.0000 N   0  0  0  0  0  0  0  0  0  0  0  0
   -1.3587    0.8416    0.0000 C   0  0  0  0  0  0  0  0  0  0  0  0
   -0.6398    1.2577    0.0000 O   0  0  0  0  0  0  0  0  0  0  0  0
   -2.0733    1.2577    0.0000 N   0  0  0  0  0  0  0  0  0  0  0  0
    0.1015   -0.2175    0.0000 N   0  0  0  0  0  0  0  0  0  0  0  0
    0.6886   -0.8004    0.0000 N   0  0  0  0  0  0  0  0  0  0  0  0
    1.4863   -0.5898    0.0000 N   0  0  0  0  0  0  0  0  0  0  0  0
    1.7012    0.2080    0.0000 C   0  0  0  0  0  0  0  0  0  0  0  0
    2.0733   -1.1728    0.0000 C   0  0  0  0  0  0  0  0  0  0  0  0
  1  2  2  0
  2  3  1  0
  3  4  2  0
  4  5  1  0
  1  5  1  0
  6  7  2  0
  6  8  1  0
  3  6  1  0
  9 10  2  0
 10 11  1  0
 11 12  1  0
 11 13  1  0
  4  9  1  0
M  END
$$$$
