268
     RDKit          2D

 19 20  0  0  0  0  0  0  0  0999 V2000
    6.5951   -1.6938    0.0000 O   0  0  0  0  0  0  0  0  0  0  0  0
    3.0791    1.1938    0.0000 N   0  0  0  0  0  0  0  0  0  0  0  0
    5.2886   -2.3577    0.0000 N   0  0  0  0  0  0  0  0  0  0  0  0
    3.0791    0.3688    0.0000 C   0  0  0  0  0  0  0  0  0  0  0  0
    3.7935   -0.0437    0.0000 C   0  0  0  0  0  0  0  0  0  0  0  0
    3.7935   -0.8687    0.0000 C   0  0  0  0  0  0  0  0  0  0  0  0
    3.7935    1.6063    0.0000 C   0  0  0  0  0  0  0  0  0  0  0  0
    2.3645    1.6063    0.0000 C   0  0  0  0  0  0  0  0  0  0  0  0
    4.5080   -1.2813    0.0000 C   0  0  0  0  0  0  0  0  0  0  0  0
    5.2886   -1.0298    0.0000 C   0  0  0  0  0  0  0  0  0  0  0  0
    4.5080   -2.1063    0.0000 C   0  0  0  0  0  0  0  0  0  0  0  0
    3.7935    2.4313    0.0000 C   0  0  0  0  0  0  0  0  0  0  0  0
    2.3645    2.4313    0.0000 C   0  0  0  0  0  0  0  0  0  0  0  0
    3.0791   -1.2813    0.0000 C   0  0  0  0  0  0  0  0  0  0  0  0
    5.7701   -1.6938    0.0000 C   0  0  0  0  0  0  0  0  0  0  0  0
    3.7935   -2.5188    0.0000 C   0  0  0  0  0  0  0  0  0  0  0  0
    3.0791   -2.1063    0.0000 C   0  0  0  0  0  0  0  0  0  0  0  0
    4.5080    2.8438    0.0000 C   0  0  0  0  0  0  0  0  0  0  0  0
    1.6500    2.8438    0.0000 C   0  0  0  0  0  0  0  0  0  0  0  0
  1 15  2  0
  2  4  1  0
  2  7  1  0
  2  8  1  0
  3 11  1  0
  3 15  1  0
  4  5  1  0
  5  6  1  0
  6  9  1  0
  6 14  2  0
  7 12  1  0
  8 13  1  0
  9 10  1  0
  9 11  2  0
 10 15  1  0
 11 16  1  0
 12 18  1  0
 13 19  1  0
 14 17  1  0
 16 17  2  0
M  END
$$$$
