
     RDKit          2D

  4  3  0  0  0  0  0  0  0  0999 V2000
    4.5077    0.6188    0.0000 O   0  0  0  0  0  0  0  0  0  0  0  0
    5.2220   -0.6188    0.0000 O   0  0  0  0  0  0  0  0  0  0  0  0
    5.9365    0.6188    0.0000 C   0  0  0  0  0  0  0  0  0  0  0  0
    5.2220    0.2063    0.0000 C   0  0  0  0  0  0  0  0  0  0  0  0
  1  4  1  0
  2  4  2  0
  3  4  1  0
M  CHG  1   1  -1
M  END
$$$$
