 
     RDKit          2D

 57 60  0  0  1  0  0  0  0  0999 V2000
   11.8740   -7.7494    0.0000 C   0  0  0  0  0  0  0  0  0  0  0  0
   11.8740   -6.9162    0.0000 C   0  0  0  0  0  0  0  0  0  0  0  0
   11.1658   -6.4995    0.0000 C   0  0  0  0  0  0  0  0  0  0  0  0
   11.1658   -5.6662    0.0000 C   0  0  0  0  0  0  0  0  0  0  0  0
   10.4158   -5.2497    0.0000 C   0  0  0  0  0  0  0  0  0  0  0  0
    9.7076   -5.6662    0.0000 C   0  0  0  0  0  0  0  0  0  0  0  0
    9.7076   -6.4995    0.0000 C   0  0  0  0  0  0  0  0  0  0  0  0
   10.4158   -6.9162    0.0000 C   0  0  0  0  0  0  0  0  0  0  0  0
    8.9993   -6.9162    0.0000 O   0  0  0  0  0  0  0  0  0  0  0  0
    8.9993   -5.2497    0.0000 O   0  0  0  0  0  0  0  0  0  0  0  0
    8.2911   -6.4995    0.0000 C   0  0  0  0  0  0  0  0  0  0  0  0
   12.5824   -8.1661    0.0000 C   0  0  0  0  0  0  0  0  0  0  0  0
   11.1658   -8.1661    0.0000 C   0  0  0  0  0  0  0  0  0  0  0  0
   13.2907   -7.7494    0.0000 C   0  0  0  0  0  0  0  0  0  0  0  0
   13.9989   -8.1661    0.0000 C   0  0  0  0  0  0  0  0  0  0  0  0
   13.9989   -8.9993    0.0000 C   0  0  0  0  0  0  0  0  0  0  0  0
   14.7906   -9.3326    0.0000 C   0  0  0  0  0  0  0  0  0  0  0  0
   15.1654  -10.1243    0.0000 C   0  0  0  0  0  0  0  0  0  0  0  0
   14.7490  -10.8742    0.0000 C   0  0  0  0  0  0  0  0  0  0  0  0
   13.9989  -11.2908    0.0000 C   0  0  0  0  0  0  0  0  0  0  0  0
   13.2907  -10.8742    0.0000 C   0  0  0  0  0  0  0  0  0  0  0  0
   13.9989  -12.1240    0.0000 C   0  0  0  0  0  0  0  0  0  0  0  0
   13.2907  -12.5407    0.0000 C   0  0  0  0  0  0  0  0  0  0  0  0
   12.5824  -12.1240    0.0000 C   0  0  0  0  0  0  0  0  0  0  0  0
   13.7072  -13.2491    0.0000 C   0  0  0  0  0  0  0  0  0  0  0  0
   13.1241  -13.8739    0.0000 C   0  0  0  0  0  0  0  0  0  0  0  0
   12.3324  -13.6656    0.0000 C   0  0  0  0  0  0  0  0  0  0  0  0
   11.7492  -14.2489    0.0000 C   0  0  0  0  0  0  0  0  0  0  0  0
   10.9575  -14.0406    0.0000 C   0  0  0  0  0  0  0  0  0  0  0  0
   10.7491  -13.2491    0.0000 C   0  0  0  0  0  0  0  0  0  0  0  0
   11.3325  -12.6657    0.0000 C   0  0  0  0  0  0  0  0  0  0  0  0
   12.1240  -12.8741    0.0000 O   0  0  0  0  0  0  0  0  0  0  0  0
   11.9573  -15.0404    0.0000 O   0  0  0  0  0  0  0  0  0  0  0  0
   13.3324  -14.6656    0.0000 O   0  0  0  0  0  0  0  0  0  0  0  0
   14.1239  -14.9156    0.0000 C   0  0  0  0  0  0  0  0  0  0  0  0
   11.3742  -15.6238    0.0000 C   0  0  0  0  0  0  0  0  0  0  0  0
   12.0407  -12.2907    0.0000 O   0  0  0  0  0  0  0  0  0  0  0  0
   10.9158  -11.9573    0.0000 C   0  0  0  0  0  0  0  0  0  0  0  0
   11.3325  -11.2075    0.0000 C   0  0  0  0  0  0  0  0  0  0  0  0
   10.9158  -10.4991    0.0000 N   0  0  0  0  0  0  0  0  0  0  0  0
   10.0826  -10.4991    0.0000 C   0  0  0  0  0  0  0  0  0  0  0  0
   11.3325   -9.7910    0.0000 C   0  0  0  0  0  0  0  0  0  0  0  0
   10.9158   -9.0409    0.0000 C   0  0  0  0  0  0  0  0  0  0  0  0
   10.0826   -9.0409    0.0000 C   0  0  0  0  0  0  0  0  0  0  0  0
    9.6660   -9.7493    0.0000 C   0  0  0  0  0  0  0  0  0  0  0  0
   12.1656  -11.1973    0.0000 O   0  0  0  0  0  0  0  0  0  0  0  0
   10.0827  -11.9676    0.0000 O   0  0  0  0  0  0  0  0  0  0  0  0
    9.9448  -13.0316    0.0000 C   0  0  0  0  0  0  0  0  0  0  0  0
   12.1657   -9.7910    0.0000 C   0  0  0  0  0  0  0  0  0  0  0  0
   12.5824  -10.5125    0.0000 O   0  0  0  0  0  0  0  0  0  0  0  0
   12.5824   -9.0693    0.0000 O   0  0  0  0  0  0  0  0  0  0  0  0
   13.2907   -6.9162    0.0000 C   0  0  0  0  0  0  0  0  0  0  0  0
   14.7223   -7.7523    0.0000 O   0  0  0  0  0  0  0  0  0  0  0  0
   15.4083   -8.8972    0.0000 O   0  0  0  0  0  0  0  0  0  0  0  0
   15.9984  -10.1513    0.0000 C   0  0  0  0  0  0  0  0  0  0  0  0
   16.4318   -9.4539    0.0000 C   0  0  0  0  0  0  0  0  0  0  0  0
   17.2484   -9.4389    0.0000 C   0  0  0  0  0  0  0  0  0  0  0  0
  1  2  2  0
  3  2  1  1
  3  4  1  0
  4  5  1  0
  5  6  1  0
  6  7  1  0
  7  8  1  0
  3  8  1  0
  7  9  1  1
  6 10  1  6
  9 11  1  0
 12  1  1  6
  1 13  1  0
 12 14  1  0
 14 15  1  0
 15 16  1  0
 16 17  1  0
 17 18  1  0
 18 19  1  0
 19 20  2  0
 20 21  1  0
 20 22  1  0
 22 23  1  0
 23 24  1  1
 23 25  1  0
 25 26  1  0
 26 27  1  0
 27 28  1  0
 28 29  1  0
 29 30  1  0
 30 31  1  0
 31 32  1  0
 27 32  1  6
 28 33  1  1
 26 34  1  6
 34 35  1  0
 33 36  1  0
 31 37  1  1
 31 38  1  0
 38 39  1  0
 41 40  1  0
 42 40  1  0
 42 43  1  1
 43 44  1  0
 44 45  1  0
 41 45  1  0
 39 40  1  0
 39 46  2  0
 38 47  2  0
 30 48  1  1
 42 49  1  0
 49 50  2  0
 49 51  1  0
 12 51  1  0
 14 52  1  6
 15 53  1  1
 17 54  2  0
 18 55  1  6
 55 56  1  0
 56 57  2  3
M  END
$$$$
