942
     RDKit          2D

 21 23  0  0  1  0  0  0  0  0999 V2000
    1.9058    0.1902    0.0000 O   0  0  0  0  0  0  0  0  0  0  0  0
    4.7934    0.9047    0.0000 N   0  0  0  0  0  0  0  0  0  0  0  0
    2.7308    1.0153    0.0000 C   0  0  0  0  0  0  0  0  0  0  0  0
    2.7308    0.1902    0.0000 C   0  0  0  0  0  0  0  0  0  0  0  0
    2.0634    1.5002    0.0000 C   0  0  0  0  0  0  0  0  0  0  0  0
    3.3982    1.5002    0.0000 C   0  0  0  0  0  0  0  0  0  0  0  0
    2.3183    2.2848    0.0000 C   0  0  0  0  0  0  0  0  0  0  0  0
    3.1433    2.2848    0.0000 C   0  0  0  0  0  0  0  0  0  0  0  0
    3.5558    0.1902    0.0000 C   0  0  0  0  0  0  0  0  0  0  0  0
    3.9683    0.9047    0.0000 C   0  0  0  0  0  0  0  0  0  0  0  0
    2.7308   -0.6348    0.0000 C   0  0  0  0  0  0  0  0  0  0  0  0
    5.2059    1.6192    0.0000 C   0  0  0  0  0  0  0  0  0  0  0  0
    5.2059    0.1902    0.0000 C   0  0  0  0  0  0  0  0  0  0  0  0
    6.0309    1.6192    0.0000 C   0  0  0  0  0  0  0  0  0  0  0  0
    6.0309    0.1902    0.0000 C   0  0  0  0  0  0  0  0  0  0  0  0
    6.4434    0.9047    0.0000 C   0  0  0  0  0  0  0  0  0  0  0  0
    3.4453   -1.0473    0.0000 C   0  0  0  0  0  0  0  0  0  0  0  0
    2.0163   -1.0473    0.0000 C   0  0  0  0  0  0  0  0  0  0  0  0
    3.4453   -1.8723    0.0000 C   0  0  0  0  0  0  0  0  0  0  0  0
    2.0163   -1.8723    0.0000 C   0  0  0  0  0  0  0  0  0  0  0  0
    2.7308   -2.2848    0.0000 C   0  0  0  0  0  0  0  0  0  0  0  0
  1  4  1  0
  2 10  1  0
  2 12  1  0
  2 13  1  0
  3  4  1  0
  3  5  1  0
  3  6  1  0
  4  9  1  0
  4 11  1  0
  5  7  1  0
  6  8  1  0
  7  8  1  0
  9 10  1  0
 11 17  2  0
 11 18  1  0
 12 14  1  0
 13 15  1  0
 14 16  1  0
 15 16  1  0
 17 19  1  0
 18 20  2  0
 19 21  2  0
 20 21  1  0
M  END
$$$$
