442
     RDKit          2D

 20 22  0  0  1  0  0  0  0  0999 V2000
    5.0221    2.3275    0.0000 O   0  0  0  0  0  0  0  0  0  0  0  0
    6.6433    2.5906    0.0000 O   0  0  0  0  0  0  0  0  0  0  0  0
    3.5220   -2.8905    0.0000 O   0  0  0  0  0  0  0  0  0  0  0  0
    5.0170   -0.5766    0.0000 N   0  0  0  0  0  0  0  0  0  0  0  0
    3.5220   -0.4155    0.0000 N   0  0  0  0  0  0  0  0  0  0  0  0
    5.0170   -1.9044    0.0000 N   0  0  0  0  0  0  0  0  0  0  0  0
    2.8075   -1.6530    0.0000 N   0  0  0  0  0  0  0  0  0  0  0  0
    2.0930   -0.4155    0.0000 N   0  0  0  0  0  0  0  0  0  0  0  0
    5.2734    0.2076    0.0000 C   0  0  0  0  0  0  0  0  0  0  0  0
    6.0598    1.2862    0.0000 C   0  0  0  0  0  0  0  0  0  0  0  0
    5.2757    1.5425    0.0000 C   0  0  0  0  0  0  0  0  0  0  0  0
    4.7896    0.8759    0.0000 C   0  0  0  0  0  0  0  0  0  0  0  0
    6.0584    0.4612    0.0000 C   0  0  0  0  0  0  0  0  0  0  0  0
    6.7281    1.7700    0.0000 C   0  0  0  0  0  0  0  0  0  0  0  0
    4.2364   -0.8280    0.0000 C   0  0  0  0  0  0  0  0  0  0  0  0
    6.7250   -0.0249    0.0000 C   0  0  0  0  0  0  0  0  0  0  0  0
    5.4985   -1.2405    0.0000 C   0  0  0  0  0  0  0  0  0  0  0  0
    4.2364   -1.6530    0.0000 C   0  0  0  0  0  0  0  0  0  0  0  0
    3.5220   -2.0655    0.0000 C   0  0  0  0  0  0  0  0  0  0  0  0
    2.8075   -0.8280    0.0000 C   0  0  0  0  0  0  0  0  0  0  0  0
 11  1  1  6
  2 14  1  0
  3 19  2  0
  9  4  1  1
  4 15  1  0
  4 17  1  0
  5 15  1  0
  5 20  1  0
  6 17  2  0
  6 18  1  0
  7 19  1  0
  7 20  2  0
  8 20  1  0
  9 12  1  0
  9 13  1  0
 10 11  1  0
 10 13  1  0
 10 14  1  1
 11 12  1  0
 13 16  2  3
 15 18  2  0
 18 19  1  0
M  END
$$$$
