531
     RDKit          2D

 14 14  0  0  1  0  0  0  0  0999 V2000
    1.6500   -0.8250    0.0000 Cl  0  0  0  0  0  0  0  0  0  0  0  0
    4.1251   -2.2540    0.0000 Cl  0  0  0  0  0  0  0  0  0  0  0  0
    4.1251    0.6040    0.0000 P   0  0  0  0  0  0  0  0  0  0  0  0
    4.8396    1.0165    0.0000 O   0  0  0  0  0  0  0  0  0  0  0  0
    4.5376   -0.1106    0.0000 O   0  0  0  0  0  0  0  0  0  0  0  0
    3.7126   -0.1106    0.0000 N   0  0  0  0  0  0  0  0  0  0  0  0
    3.4106    1.0165    0.0000 N   0  0  0  0  0  0  0  0  0  0  0  0
    3.4106    1.8415    0.0000 C   0  0  0  0  0  0  0  0  0  0  0  0
    4.1251    2.2540    0.0000 C   0  0  0  0  0  0  0  0  0  0  0  0
    4.8396    1.8415    0.0000 C   0  0  0  0  0  0  0  0  0  0  0  0
    2.8876   -0.1106    0.0000 C   0  0  0  0  0  0  0  0  0  0  0  0
    4.1251   -0.8250    0.0000 C   0  0  0  0  0  0  0  0  0  0  0  0
    2.4751   -0.8250    0.0000 C   0  0  0  0  0  0  0  0  0  0  0  0
    3.7126   -1.5395    0.0000 C   0  0  0  0  0  0  0  0  0  0  0  0
  1 13  1  0
  2 14  1  0
  3  4  1  0
  3  5  2  0
  3  6  1  0
  3  7  1  0
  4 10  1  0
  6 11  1  0
  6 12  1  0
  7  8  1  0
  8  9  1  0
  9 10  1  0
 11 13  1  0
 12 14  1  0
M  END
$$$$
