220
     RDKit          2D

 40 43  0  0  1  0  0  0  0  0999 V2000
    3.7935    0.3077    0.0000 S   0  0  0  0  0  0  0  0  0  0  0  0
    5.2224   -2.1673    0.0000 O   0  0  0  0  0  0  0  0  0  0  0  0
    6.6515    0.3077    0.0000 O   0  0  0  0  0  0  0  0  0  0  0  0
    3.7935    1.1327    0.0000 O   0  0  0  0  0  0  0  0  0  0  0  0
    5.9370    4.0203    0.0000 O   0  0  0  0  0  0  0  0  0  0  0  0
    6.6515   -1.3423    0.0000 N   0  0  0  0  0  0  0  0  0  0  0  0
    5.9370   -3.4048    0.0000 N   0  0  0  0  0  0  0  0  0  0  0  0
    5.2224    1.1327    0.0000 N   0  0  0  0  0  0  0  0  0  0  0  0
    8.0804   -2.1673    0.0000 C   0  0  0  0  0  0  0  0  0  0  0  0
    8.0804   -1.3423    0.0000 C   0  0  0  0  0  0  0  0  0  0  0  0
    7.3659   -2.5798    0.0000 C   0  0  0  0  0  0  0  0  0  0  0  0
    7.3659   -0.9298    0.0000 C   0  0  0  0  0  0  0  0  0  0  0  0
    8.8180   -2.6084    0.0000 C   0  0  0  0  0  0  0  0  0  0  0  0
    8.8180   -0.9012    0.0000 C   0  0  0  0  0  0  0  0  0  0  0  0
    6.6515   -2.1673    0.0000 C   0  0  0  0  0  0  0  0  0  0  0  0
    9.5654   -2.1845    0.0000 C   0  0  0  0  0  0  0  0  0  0  0  0
    9.5654   -1.3251    0.0000 C   0  0  0  0  0  0  0  0  0  0  0  0
    5.9370   -0.9298    0.0000 C   0  0  0  0  0  0  0  0  0  0  0  0
    5.9370   -2.5798    0.0000 C   0  0  0  0  0  0  0  0  0  0  0  0
    5.9370   -0.1048    0.0000 C   0  0  0  0  0  0  0  0  0  0  0  0
    5.2224    0.3077    0.0000 C   0  0  0  0  0  0  0  0  0  0  0  0
    5.2224   -3.8174    0.0000 C   0  0  0  0  0  0  0  0  0  0  0  0
    4.5080   -0.1048    0.0000 C   0  0  0  0  0  0  0  0  0  0  0  0
    4.8099   -3.1029    0.0000 C   0  0  0  0  0  0  0  0  0  0  0  0
    4.5080   -4.2299    0.0000 C   0  0  0  0  0  0  0  0  0  0  0  0
    5.6350   -4.5318    0.0000 C   0  0  0  0  0  0  0  0  0  0  0  0
    4.5080    1.5453    0.0000 C   0  0  0  0  0  0  0  0  0  0  0  0
    4.5080    2.3703    0.0000 C   0  0  0  0  0  0  0  0  0  0  0  0
    3.0791   -0.1048    0.0000 C   0  0  0  0  0  0  0  0  0  0  0  0
    5.2224    2.7828    0.0000 C   0  0  0  0  0  0  0  0  0  0  0  0
    3.7935    2.7828    0.0000 C   0  0  0  0  0  0  0  0  0  0  0  0
    3.0791   -0.9298    0.0000 C   0  0  0  0  0  0  0  0  0  0  0  0
    2.3645    0.3077    0.0000 C   0  0  0  0  0  0  0  0  0  0  0  0
    5.2224    3.6078    0.0000 C   0  0  0  0  0  0  0  0  0  0  0  0
    5.9370    2.3703    0.0000 C   0  0  0  0  0  0  0  0  0  0  0  0
    3.7935    3.6078    0.0000 C   0  0  0  0  0  0  0  0  0  0  0  0
    2.3645   -1.3423    0.0000 C   0  0  0  0  0  0  0  0  0  0  0  0
    1.6500   -0.1048    0.0000 C   0  0  0  0  0  0  0  0  0  0  0  0
    4.5080    4.0203    0.0000 C   0  0  0  0  0  0  0  0  0  0  0  0
    1.6500   -0.9298    0.0000 C   0  0  0  0  0  0  0  0  0  0  0  0
  1 23  1  0
  1 29  1  0
  2 19  2  0
 20  3  1  6
  4 27  2  0
  5 34  1  0
  6 12  1  0
  6 15  1  0
  6 18  1  0
  7 19  1  0
  7 22  1  0
 21  8  1  0
  8 27  1  0
  9 10  1  0
  9 11  1  1
  9 13  1  0
 10 12  1  1
 10 14  1  0
 11 15  1  0
 13 16  1  0
 14 17  1  0
 15 19  1  1
 16 17  1  0
 18 20  1  0
 20 21  1  0
 21 23  1  6
 22 24  1  0
 22 25  1  0
 22 26  1  0
 27 28  1  0
 28 30  2  0
 28 31  1  0
 29 32  2  0
 29 33  1  0
 30 34  1  0
 30 35  1  0
 31 36  2  0
 32 37  1  0
 33 38  2  0
 34 39  2  0
 36 39  1  0
 37 40  2  0
 38 40  1  0
M  END
$$$$
