324
     RDKit          2D

 27 30  0  0  1  0  0  0  0  0999 V2000
    4.1400    0.7077    0.0000 F   0  0  0  0  0  0  0  0  0  0  0  0
    6.6263    1.9371    0.0000 O   0  0  0  0  0  0  0  0  0  0  0  0
    3.9559    1.3132    0.0000 O   0  0  0  0  0  0  0  0  0  0  0  0
    7.4634    2.4564    0.0000 O   0  0  0  0  0  0  0  0  0  0  0  0
    1.6500   -1.6175    0.0000 O   0  0  0  0  0  0  0  0  0  0  0  0
    6.0993    0.9007    0.0000 C   0  0  0  0  0  0  0  0  0  0  0  0
    6.0993    0.0757    0.0000 C   0  0  0  0  0  0  0  0  0  0  0  0
    5.3849   -0.3368    0.0000 C   0  0  0  0  0  0  0  0  0  0  0  0
    4.6703    0.0757    0.0000 C   0  0  0  0  0  0  0  0  0  0  0  0
    6.8799    1.1521    0.0000 C   0  0  0  0  0  0  0  0  0  0  0  0
    5.3849    1.3132    0.0000 C   0  0  0  0  0  0  0  0  0  0  0  0
    4.6703    0.9007    0.0000 C   0  0  0  0  0  0  0  0  0  0  0  0
    6.8799   -0.1757    0.0000 C   0  0  0  0  0  0  0  0  0  0  0  0
    3.9196   -0.3425    0.0000 C   0  0  0  0  0  0  0  0  0  0  0  0
    7.3614    0.4882    0.0000 C   0  0  0  0  0  0  0  0  0  0  0  0
    5.3981   -1.1961    0.0000 C   0  0  0  0  0  0  0  0  0  0  0  0
    4.6572   -1.6314    0.0000 C   0  0  0  0  0  0  0  0  0  0  0  0
    6.0993    1.7257    0.0000 C   0  0  0  0  0  0  0  0  0  0  0  0
    3.9130   -1.2018    0.0000 C   0  0  0  0  0  0  0  0  0  0  0  0
    7.5482    1.6358    0.0000 C   0  0  0  0  0  0  0  0  0  0  0  0
    3.6434    0.4349    0.0000 C   0  0  0  0  0  0  0  0  0  0  0  0
    3.1550    0.1229    0.0000 C   0  0  0  0  0  0  0  0  0  0  0  0
    4.6603   -2.4564    0.0000 C   0  0  0  0  0  0  0  0  0  0  0  0
    3.1413   -1.6554    0.0000 C   0  0  0  0  0  0  0  0  0  0  0  0
    2.3729   -0.3127    0.0000 C   0  0  0  0  0  0  0  0  0  0  0  0
    8.3013    1.2990    0.0000 C   0  0  0  0  0  0  0  0  0  0  0  0
    2.3660   -1.2078    0.0000 C   0  0  0  0  0  0  0  0  0  0  0  0
  9  1  1  6
 10  2  1  6
 12  3  1  1
  4 20  2  0
  5 27  2  0
  6  7  1  0
  6 10  1  0
  6 11  1  0
  6 18  1  1
  7  8  1  0
  7 13  1  1
  8  9  1  0
  8 16  1  6
  9 12  1  0
  9 14  1  0
 10 15  1  0
 10 20  1  0
 11 12  1  0
 13 15  1  0
 14 19  1  0
 14 21  1  1
 14 22  1  0
 16 17  1  0
 17 19  1  0
 17 23  1  6
 19 24  2  0
 20 26  1  0
 22 25  2  0
 24 27  1  0
 25 27  1  0
M  END
$$$$
