
     RDKit          2D

 13 15  0  0  0  0  0  0  0  0999 V2000
   -0.4743    0.0388    0.0000 C   0  0  0  0  0  0  0  0  0  0  0  0
   -1.2993    0.0388    0.0000 C   0  0  0  0  0  0  0  0  0  0  0  0
   -1.7118   -0.6757    0.0000 C   0  0  0  0  0  0  0  0  0  0  0  0
   -1.2993   -1.3902    0.0000 N   0  0  0  0  0  0  0  0  0  0  0  0
   -0.4743   -1.3902    0.0000 C   0  0  0  0  0  0  0  0  0  0  0  0
   -0.4743   -0.7862    0.0000 C   0  0  0  0  0  0  0  0  0  0  0  0
   -1.2993   -0.7862    0.0000 C   0  0  0  0  0  0  0  0  0  0  0  0
    0.3340    0.0481    0.0000 C   0  0  0  0  0  0  0  0  0  0  0  0
   -0.0618   -0.6757    0.0000 C   0  0  0  0  0  0  0  0  0  0  0  0
    0.5042   -1.2759    0.0000 O   0  0  0  0  0  0  0  0  0  0  0  0
    1.2499   -0.9230    0.0000 C   0  0  0  0  0  0  0  0  0  0  0  0
    1.1448   -0.1047    0.0000 S   0  0  0  0  0  0  0  0  0  0  0  0
    1.9737   -1.3188    0.0000 C   0  0  0  0  0  0  0  0  0  0  0  0
  1  2  1  0
  2  3  1  0
  3  4  1  0
  4  5  1  0
  5  9  1  0
  1  9  1  0
  1  6  1  0
  6  7  1  0
  4  7  1  0
  9  8  1  6
  9 10  1  0
 10 11  1  0
 11 12  1  0
  8 12  1  0
 11 13  1  0
M  END
$$$$
