744
     RDKit          2D

 16 17  0  0  1  0  0  0  0  0999 V2000
    3.8597    1.1874    0.0000 S   0  0  0  0  0  0  0  0  0  0  0  0
    5.1662   -0.9055    0.0000 O   0  0  0  0  0  0  0  0  0  0  0  0
    6.8162    0.5235    0.0000 O   0  0  0  0  0  0  0  0  0  0  0  0
    5.5787   -0.1910    0.0000 N   0  0  0  0  0  0  0  0  0  0  0  0
    6.8162   -0.9055    0.0000 N   0  0  0  0  0  0  0  0  0  0  0  0
    5.1662    0.5235    0.0000 C   0  0  0  0  0  0  0  0  0  0  0  0
    4.3412    0.5235    0.0000 C   0  0  0  0  0  0  0  0  0  0  0  0
    3.0791    0.1110    0.0000 C   0  0  0  0  0  0  0  0  0  0  0  0
    3.8597   -0.1404    0.0000 C   0  0  0  0  0  0  0  0  0  0  0  0
    3.0791    0.9360    0.0000 C   0  0  0  0  0  0  0  0  0  0  0  0
    5.5787    1.2379    0.0000 C   0  0  0  0  0  0  0  0  0  0  0  0
    2.3645   -0.3015    0.0000 C   0  0  0  0  0  0  0  0  0  0  0  0
    2.3645    1.3485    0.0000 C   0  0  0  0  0  0  0  0  0  0  0  0
    1.6500    0.1110    0.0000 C   0  0  0  0  0  0  0  0  0  0  0  0
    1.6500    0.9360    0.0000 C   0  0  0  0  0  0  0  0  0  0  0  0
    6.4037   -0.1910    0.0000 C   0  0  0  0  0  0  0  0  0  0  0  0
  1  7  1  0
  1 10  1  0
  2  4  1  0
  3 16  2  0
  4  6  1  0
  4 16  1  0
  5 16  1  0
  6  7  1  0
  6 11  1  0
  7  9  2  0
  8  9  1  0
  8 10  2  0
  8 12  1  0
 10 13  1  0
 12 14  2  0
 13 15  2  0
 14 15  1  0
M  END
$$$$
