
     RDKit          2D

 33 37  0  0  0  0  0  0  0  0999 V2000
    5.9083   -7.7517    0.0000 C   0  0  0  0  0  0  0  0  0  0  0  0
    5.1986   -7.3311    0.0000 N   0  0  0  0  0  0  0  0  0  0  0  0
    5.9083   -8.5666    0.0000 C   0  0  0  0  0  0  0  0  0  0  0  0
    6.6443   -7.3311    0.0000 C   0  0  0  0  0  0  0  0  0  0  0  0
    5.1986   -8.9872    0.0000 N   0  0  0  0  0  0  0  0  0  0  0  0
    7.3277   -8.5666    0.0000 C   0  0  0  0  0  0  0  0  0  0  0  0
    7.3277   -7.7517    0.0000 C   0  0  0  0  0  0  0  0  0  0  0  0
    6.6443   -8.9872    0.0000 C   0  0  0  0  0  0  0  0  0  0  0  0
    4.4625   -7.7517    0.0000 C   0  0  0  0  0  0  0  0  0  0  0  0
    4.4625   -8.5666    0.0000 C   0  0  0  0  0  0  0  0  0  0  0  0
    8.0638   -7.3311    0.0000 N   0  0  0  0  0  0  0  0  0  0  0  0
    8.0638   -8.9872    0.0000 N   0  0  0  0  0  0  0  0  0  0  0  0
    5.1986   -6.5162    0.0000 C   0  0  0  0  0  0  0  0  0  0  0  0
    5.9083   -6.0956    0.0000 C   0  0  0  0  0  0  0  0  0  0  0  0
    4.4625   -6.0956    0.0000 C   0  0  0  0  0  0  0  0  0  0  0  0
    8.7735   -8.5666    0.0000 C   0  0  0  0  0  0  0  0  0  0  0  0
    5.1986   -4.8602    0.0000 C   0  0  0  0  0  0  0  0  0  0  0  0
   10.1930   -7.7517    0.0000 C   0  0  0  0  0  0  0  0  0  0  0  0
    4.4625   -5.2545    0.0000 C   0  0  0  0  0  0  0  0  0  0  0  0
    5.9083   -5.2545    0.0000 C   0  0  0  0  0  0  0  0  0  0  0  0
    8.0638   -6.5162    0.0000 C   0  0  0  0  0  0  0  0  0  0  0  0
    5.1986   -4.0453    0.0000 Cl  0  0  0  0  0  0  0  0  0  0  0  0
   10.9290   -7.3311    0.0000 Cl  0  0  0  0  0  0  0  0  0  0  0  0
    9.4833   -8.9872    0.0000 C   0  0  0  0  0  0  0  0  0  0  0  0
    8.7735   -7.7517    0.0000 C   0  0  0  0  0  0  0  0  0  0  0  0
   10.1930   -8.5666    0.0000 C   0  0  0  0  0  0  0  0  0  0  0  0
    9.4833   -7.3311    0.0000 C   0  0  0  0  0  0  0  0  0  0  0  0
    3.7790   -7.3311    0.0000 C   0  0  0  0  0  0  0  0  0  0  0  0
    3.7790   -8.9872    0.0000 C   0  0  0  0  0  0  0  0  0  0  0  0
    8.7735   -6.0956    0.0000 C   0  0  0  0  0  0  0  0  0  0  0  0
    7.3277   -6.0956    0.0000 C   0  0  0  0  0  0  0  0  0  0  0  0
    3.0430   -7.7517    0.0000 C   0  0  0  0  0  0  0  0  0  0  0  0
    3.0430   -8.5666    0.0000 C   0  0  0  0  0  0  0  0  0  0  0  0
  2  1  1  0
  3  1  1  0
  4  1  2  0
  9  2  1  0
 13  2  1  0
  5  3  2  0
  8  3  1  0
  7  4  1  0
 10  5  1  0
  7  6  1  0
 12  6  1  0
  8  6  2  0
 11  7  2  3
 28  9  2  0
 10  9  1  0
 29 10  2  0
 11 21  1  0
 16 12  1  0
 14 13  2  0
 15 13  1  0
 20 14  1  0
 19 15  2  0
 24 16  1  0
 25 16  2  0
 19 17  1  0
 22 17  1  0
 20 17  2  0
 27 18  2  0
 23 18  1  0
 26 18  1  0
 30 21  1  0
 31 21  1  0
 26 24  2  0
 27 25  1  0
 32 28  1  0
 33 29  1  0
 33 32  2  0
M  END
$$$$
