
     RDKit          2D

 44 46  0  0  0  0  0  0  0  0999 V2000
    1.8562   -0.7144    0.0000 C   0  0  0  0  0  0  0  0  0  0  0  0
    2.2687   -1.4289    0.0000 C   0  0  0  0  0  0  0  0  0  0  0  0
    1.0312   -2.1434    0.0000 C   0  0  0  0  0  0  0  0  0  0  0  0
   -3.9187    0.7144    0.0000 C   0  0  0  0  0  0  0  0  0  0  0  0
   -0.6187    0.7144    0.0000 C   0  0  0  0  0  0  0  0  0  0  0  0
    1.0312    0.7144    0.0000 C   0  0  0  0  0  0  0  0  0  0  0  0
    2.2687    0.0000    0.0000 C   0  0  0  0  0  0  0  0  0  0  0  0
    1.8562   -2.1434    0.0000 C   0  0  0  0  0  0  0  0  0  0  0  0
    3.0937   -1.4289    0.0000 C   0  0  0  0  0  0  0  0  0  0  0  0
   -3.0937    0.7144    0.0000 C   0  0  0  0  0  0  0  0  0  0  0  0
   -1.4437    0.7144    0.0000 C   0  0  0  0  0  0  0  0  0  0  0  0
    0.6187    1.4289    0.0000 C   0  0  0  0  0  0  0  0  0  0  0  0
    3.0937    0.0000    0.0000 C   0  0  0  0  0  0  0  0  0  0  0  0
    2.2687   -2.8578    0.0000 C   0  0  0  0  0  0  0  0  0  0  0  0
    3.5062   -2.1434    0.0000 C   0  0  0  0  0  0  0  0  0  0  0  0
   -2.6812    1.4289    0.0000 C   0  0  0  0  0  0  0  0  0  0  0  0
    3.5062    0.7144    0.0000 C   0  0  0  0  0  0  0  0  0  0  0  0
    3.0937   -2.8578    0.0000 C   0  0  0  0  0  0  0  0  0  0  0  0
    0.6187    2.8578    0.0000 C   0  0  0  0  0  0  0  0  0  0  0  0
    3.0937    1.4289    0.0000 C   0  0  0  0  0  0  0  0  0  0  0  0
   -0.2062    2.8578    0.0000 C   0  0  0  0  0  0  0  0  0  0  0  0
   -1.8562    1.4289    0.0000 C   0  0  0  0  0  0  0  0  0  0  0  0
    1.0312    2.1434    0.0000 C   0  0  0  0  0  0  0  0  0  0  0  0
    2.2687    1.4289    0.0000 C   0  0  0  0  0  0  0  0  0  0  0  0
   -0.6187    2.1434    0.0000 C   0  0  0  0  0  0  0  0  0  0  0  0
    3.5062   -0.7144    0.0000 N   0  0  0  0  0  0  0  0  0  0  0  0
    0.6187   -2.8578    0.0000 O   0  0  0  0  0  0  0  0  0  0  0  0
   -4.3312    0.0000    0.0000 O   0  0  0  0  0  0  0  0  0  0  0  0
   -0.2062    0.0000    0.0000 O   0  0  0  0  0  0  0  0  0  0  0  0
    0.6187    0.0000    0.0000 O   0  0  0  0  0  0  0  0  0  0  0  0
   -2.6812    0.0000    0.0000 O   0  0  0  0  0  0  0  0  0  0  0  0
   -1.8562    0.0000    0.0000 O   0  0  0  0  0  0  0  0  0  0  0  0
    1.8562   -3.5723    0.0000 O   0  0  0  0  0  0  0  0  0  0  0  0
    4.3312   -2.1434    0.0000 O   0  0  0  0  0  0  0  0  0  0  0  0
   -3.0937    2.1434    0.0000 O   0  0  0  0  0  0  0  0  0  0  0  0
    4.3312    0.7144    0.0000 O   0  0  0  0  0  0  0  0  0  0  0  0
    3.5062   -3.5723    0.0000 O   0  0  0  0  0  0  0  0  0  0  0  0
    1.0312    3.5723    0.0000 O   0  0  0  0  0  0  0  0  0  0  0  0
    3.5062    2.1434    0.0000 O   0  0  0  0  0  0  0  0  0  0  0  0
   -0.6187    3.5723    0.0000 O   0  0  0  0  0  0  0  0  0  0  0  0
    1.8562    0.7144    0.0000 O   0  0  0  0  0  0  0  0  0  0  0  0
   -0.2062    1.4289    0.0000 O   0  0  0  0  0  0  0  0  0  0  0  0
   -1.4437    2.1434    0.0000 O   0  0  0  0  0  0  0  0  0  0  0  0
    1.8562    2.1434    0.0000 O   0  0  0  0  0  0  0  0  0  0  0  0
  7  1  1  1
  8  2  2  0
  8  3  1  0
  9  2  1  0
 10  4  1  0
 11  5  1  0
 12  6  1  1
 13  7  1  0
 14  8  1  0
 15  9  1  0
 16 10  1  0
 17 13  1  0
 18 14  1  0
 18 15  1  0
 20 17  1  0
 21 19  1  0
 22 11  1  0
 22 16  1  0
 23 12  1  0
 23 19  1  0
 24 20  1  0
 25 21  1  0
  9 26  1  6
 13 26  1  1
 27  3  1  0
 28  4  2  0
 29  5  1  0
 30  6  1  0
 10 31  1  1
 11 32  1  1
 14 33  1  6
 15 34  1  6
 16 35  1  1
 17 36  1  1
 18 37  1  1
 19 38  1  1
 20 39  1  6
 21 40  1  6
 41  7  1  0
 41 24  1  0
 42 12  1  0
 42 25  1  0
 22 43  1  6
 25 43  1  6
 23 44  1  6
 24 44  1  6
M  END
$$$$
