3468
     RDKit          2D

 28 30  0  0  0  0  0  0  0  0999 V2000
    8.0804    2.2688    0.0000 N   0  0  0  0  0  0  0  0  0  0  0  0
    2.3645    2.2688    0.0000 N   0  0  0  0  0  0  0  0  0  0  0  0
    5.2224   -2.6813    0.0000 N   0  0  0  0  0  0  0  0  0  0  0  0
    5.2224    0.6188    0.0000 C   0  0  0  0  0  0  0  0  0  0  0  0
    5.9370    1.0313    0.0000 C   0  0  0  0  0  0  0  0  0  0  0  0
    4.5080    1.0313    0.0000 C   0  0  0  0  0  0  0  0  0  0  0  0
    5.2224   -0.2063    0.0000 C   0  0  0  0  0  0  0  0  0  0  0  0
    5.9370    1.8563    0.0000 C   0  0  0  0  0  0  0  0  0  0  0  0
    3.7935    0.6188    0.0000 C   0  0  0  0  0  0  0  0  0  0  0  0
    6.6515    0.6188    0.0000 C   0  0  0  0  0  0  0  0  0  0  0  0
    4.5080    1.8563    0.0000 C   0  0  0  0  0  0  0  0  0  0  0  0
    5.9370   -0.6188    0.0000 C   0  0  0  0  0  0  0  0  0  0  0  0
    4.5080   -0.6188    0.0000 C   0  0  0  0  0  0  0  0  0  0  0  0
    7.3659    1.8563    0.0000 C   0  0  0  0  0  0  0  0  0  0  0  0
    3.0790    1.8563    0.0000 C   0  0  0  0  0  0  0  0  0  0  0  0
    5.2224   -1.8563    0.0000 C   0  0  0  0  0  0  0  0  0  0  0  0
    6.6515    2.2688    0.0000 C   0  0  0  0  0  0  0  0  0  0  0  0
    3.0790    1.0313    0.0000 C   0  0  0  0  0  0  0  0  0  0  0  0
    7.3659    1.0313    0.0000 C   0  0  0  0  0  0  0  0  0  0  0  0
    3.7935    2.2688    0.0000 C   0  0  0  0  0  0  0  0  0  0  0  0
    5.9370   -1.4438    0.0000 C   0  0  0  0  0  0  0  0  0  0  0  0
    4.5080   -1.4438    0.0000 C   0  0  0  0  0  0  0  0  0  0  0  0
    2.3645    3.0938    0.0000 C   0  0  0  0  0  0  0  0  0  0  0  0
    1.6500    1.8563    0.0000 C   0  0  0  0  0  0  0  0  0  0  0  0
    8.0804    3.0938    0.0000 C   0  0  0  0  0  0  0  0  0  0  0  0
    8.7949    1.8563    0.0000 C   0  0  0  0  0  0  0  0  0  0  0  0
    4.5080   -3.0938    0.0000 C   0  0  0  0  0  0  0  0  0  0  0  0
    5.9370   -3.0938    0.0000 C   0  0  0  0  0  0  0  0  0  0  0  0
  1 14  1  0
  1 25  1  0
  1 26  1  0
  2 15  1  0
  2 23  1  0
  2 24  1  0
  3 16  2  0
  3 27  1  0
  3 28  1  0
  4  5  1  0
  4  6  1  0
  4  7  2  0
  5  8  2  0
  5 10  1  0
  6  9  2  0
  6 11  1  0
  7 12  1  0
  7 13  1  0
  8 17  1  0
  9 18  1  0
 10 19  2  0
 11 20  2  0
 12 21  2  0
 13 22  2  0
 14 17  2  0
 14 19  1  0
 15 18  2  0
 15 20  1  0
 16 21  1  0
 16 22  1  0
M  CHG  1   3   1
M  END
$$$$
