730
     RDKit          2D

 14 16  0  0  0  0  0  0  0  0999 V2000
    6.4356    0.2500    0.0000 S   0  0  0  0  0  0  0  0  0  0  0  0
    3.8596    0.5014    0.0000 N   0  0  0  0  0  0  0  0  0  0  0  0
    3.8596   -0.8265    0.0000 N   0  0  0  0  0  0  0  0  0  0  0  0
    5.6510   -0.8300    0.0000 N   0  0  0  0  0  0  0  0  0  0  0  0
    3.0790    0.2500    0.0000 C   0  0  0  0  0  0  0  0  0  0  0  0
    3.0790   -0.5750    0.0000 C   0  0  0  0  0  0  0  0  0  0  0  0
    4.3411   -0.1625    0.0000 C   0  0  0  0  0  0  0  0  0  0  0  0
    5.1661   -0.1625    0.0000 C   0  0  0  0  0  0  0  0  0  0  0  0
    2.3645    0.6625    0.0000 C   0  0  0  0  0  0  0  0  0  0  0  0
    2.3645   -0.9875    0.0000 C   0  0  0  0  0  0  0  0  0  0  0  0
    1.6500    0.2500    0.0000 C   0  0  0  0  0  0  0  0  0  0  0  0
    1.6500   -0.5750    0.0000 C   0  0  0  0  0  0  0  0  0  0  0  0
    5.6510    0.5049    0.0000 C   0  0  0  0  0  0  0  0  0  0  0  0
    6.4356   -0.5750    0.0000 C   0  0  0  0  0  0  0  0  0  0  0  0
  1 13  1  0
  1 14  1  0
  2  5  1  0
  2  7  1  0
  3  6  1  0
  3  7  2  0
  4  8  1  0
  4 14  2  0
  5  6  2  0
  5  9  1  0
  6 10  1  0
  7  8  1  0
  8 13  2  0
  9 11  2  0
 10 12  2  0
 11 12  1  0
M  END
$$$$
