625
     RDKit          2D

 21 23  0  0  1  0  0  0  0  0999 V2000
    5.9914    0.3836    0.0000 Cl  0  0  0  0  0  0  0  0  0  0  0  0
    3.0791   -1.0255    0.0000 F   0  0  0  0  0  0  0  0  0  0  0  0
    2.2540   -1.0255    0.0000 F   0  0  0  0  0  0  0  0  0  0  0  0
    1.9520    0.1015    0.0000 F   0  0  0  0  0  0  0  0  0  0  0  0
    2.3645    0.8159    0.0000 O   0  0  0  0  0  0  0  0  0  0  0  0
    1.6500    2.0535    0.0000 O   0  0  0  0  0  0  0  0  0  0  0  0
    3.0791    2.0535    0.0000 N   0  0  0  0  0  0  0  0  0  0  0  0
    4.3166   -1.7400    0.0000 C   0  0  0  0  0  0  0  0  0  0  0  0
    5.0310   -2.1525    0.0000 C   0  0  0  0  0  0  0  0  0  0  0  0
    4.3166   -2.5650    0.0000 C   0  0  0  0  0  0  0  0  0  0  0  0
    3.0791    0.4034    0.0000 C   0  0  0  0  0  0  0  0  0  0  0  0
    3.9041   -1.0255    0.0000 C   0  0  0  0  0  0  0  0  0  0  0  0
    3.7935    0.8159    0.0000 C   0  0  0  0  0  0  0  0  0  0  0  0
    3.4916   -0.3110    0.0000 C   0  0  0  0  0  0  0  0  0  0  0  0
    3.7935    1.6410    0.0000 C   0  0  0  0  0  0  0  0  0  0  0  0
    2.6665   -0.3110    0.0000 C   0  0  0  0  0  0  0  0  0  0  0  0
    4.5310    0.3749    0.0000 C   0  0  0  0  0  0  0  0  0  0  0  0
    4.5310    2.0821    0.0000 C   0  0  0  0  0  0  0  0  0  0  0  0
    2.3645    1.6410    0.0000 C   0  0  0  0  0  0  0  0  0  0  0  0
    5.2785    0.7988    0.0000 C   0  0  0  0  0  0  0  0  0  0  0  0
    5.2785    1.6582    0.0000 C   0  0  0  0  0  0  0  0  0  0  0  0
  1 20  1  0
  2 16  1  0
  3 16  1  0
  4 16  1  0
  5 11  1  0
  5 19  1  0
  6 19  2  0
  7 15  1  0
  7 19  1  0
  8  9  1  0
  8 10  1  0
  8 12  1  0
  9 10  1  0
 11 13  1  0
 11 14  1  6
 11 16  1  0
 12 14  3  0
 13 15  2  0
 13 17  1  0
 15 18  1  0
 17 20  2  0
 18 21  2  0
 20 21  1  0
M  END
$$$$
