
     RDKit          2D

 22 23  0  0  1  0  0  0  0  0999 V2000
    5.2224    0.5492    0.0000 N   0  0  0  0  0  0  0  0  0  0  0  0
    5.9370    0.9617    0.0000 C   0  0  0  0  0  0  0  0  0  0  0  0
    5.9370    1.7867    0.0000 C   0  0  0  0  0  0  0  0  0  0  0  0
    6.6515    2.1993    0.0000 C   0  0  0  0  0  0  0  0  0  0  0  0
    6.6515    3.0243    0.0000 C   0  0  0  0  0  0  0  0  0  0  0  0
    2.3645   -2.7509    0.0000 C   0  0  0  0  0  0  0  0  0  0  0  0
    5.2224   -0.2758    0.0000 C   0  0  0  0  0  0  0  0  0  0  0  0
    5.2224    2.1993    0.0000 C   0  0  0  0  0  0  0  0  0  0  0  0
    7.3889    1.7581    0.0000 C   0  0  0  0  0  0  0  0  0  0  0  0
    4.5080    0.9617    0.0000 C   0  0  0  0  0  0  0  0  0  0  0  0
    5.9370    3.4368    0.0000 C   0  0  0  0  0  0  0  0  0  0  0  0
    5.2224    3.0243    0.0000 C   0  0  0  0  0  0  0  0  0  0  0  0
    7.3889    3.4653    0.0000 C   0  0  0  0  0  0  0  0  0  0  0  0
    1.9520   -2.0364    0.0000 C   0  0  0  0  0  0  0  0  0  0  0  0
    2.7770   -3.4653    0.0000 C   0  0  0  0  0  0  0  0  0  0  0  0
    1.6500   -3.1634    0.0000 C   0  0  0  0  0  0  0  0  0  0  0  0
    4.5080   -0.6883    0.0000 C   0  0  0  0  0  0  0  0  0  0  0  0
    8.1365    2.1821    0.0000 C   0  0  0  0  0  0  0  0  0  0  0  0
    8.1365    3.0414    0.0000 C   0  0  0  0  0  0  0  0  0  0  0  0
    3.0791   -2.3383    0.0000 C   0  0  0  0  0  0  0  0  0  0  0  0
    4.5080   -1.5133    0.0000 C   0  0  0  0  0  0  0  0  0  0  0  0
    3.7935   -1.9258    0.0000 C   0  0  0  0  0  0  0  0  0  0  0  0
  1  2  1  0
  1  7  1  0
  1 10  1  0
  2  3  1  0
  3  4  2  0
  3  8  1  0
  4  5  1  0
  4  9  1  0
  5 11  2  0
  5 13  1  0
  6 14  1  0
  6 15  1  0
  6 16  1  0
  6 20  1  0
  7 17  1  0
  8 12  2  0
  9 18  2  0
 11 12  1  0
 13 19  2  0
 18 19  1  0
 20 22  3  0
 21 22  1  0
 17 21  2  0
M  END
$$$$
