445
     RDKit          2D

 39 43  0  0  1  0  0  0  0  0999 V2000
    4.9345    0.4160    0.0000 O   0  0  0  0  0  0  0  0  0  0  0  0
    3.5056    0.4325    0.0000 O   0  0  0  0  0  0  0  0  0  0  0  0
    3.7677   -2.4082    0.0000 O   0  0  0  0  0  0  0  0  0  0  0  0
    2.0959    2.0989    0.0000 O   0  0  0  0  0  0  0  0  0  0  0  0
    6.3769    0.3875    0.0000 O   0  0  0  0  0  0  0  0  0  0  0  0
    6.3769   -2.9125    0.0000 O   0  0  0  0  0  0  0  0  0  0  0  0
    2.9372   -0.9825    0.0000 O   0  0  0  0  0  0  0  0  0  0  0  0
    2.1178   -2.4146    0.0000 O   0  0  0  0  0  0  0  0  0  0  0  0
    7.8193    0.4160    0.0000 O   0  0  0  0  0  0  0  0  0  0  0  0
    7.8193   -2.9410    0.0000 O   0  0  0  0  0  0  0  0  0  0  0  0
    9.3351    0.4516    0.0000 O   0  0  0  0  0  0  0  0  0  0  0  0
    3.5343    2.9074    0.0000 N   0  0  0  0  0  0  0  0  0  0  0  0
    4.9250   -0.4089    0.0000 C   0  0  0  0  0  0  0  0  0  0  0  0
    4.1774   -1.6921    0.0000 C   0  0  0  0  0  0  0  0  0  0  0  0
    4.1774   -0.8328    0.0000 C   0  0  0  0  0  0  0  0  0  0  0  0
    4.9250   -2.1161    0.0000 C   0  0  0  0  0  0  0  0  0  0  0  0
    5.6624   -0.8500    0.0000 C   0  0  0  0  0  0  0  0  0  0  0  0
    5.6624   -1.6750    0.0000 C   0  0  0  0  0  0  0  0  0  0  0  0
    4.2248    0.8368    0.0000 C   0  0  0  0  0  0  0  0  0  0  0  0
    4.2344    1.6617    0.0000 C   0  0  0  0  0  0  0  0  0  0  0  0
    3.5247    2.0824    0.0000 C   0  0  0  0  0  0  0  0  0  0  0  0
    2.8056    1.6782    0.0000 C   0  0  0  0  0  0  0  0  0  0  0  0
    2.7960    0.8533    0.0000 C   0  0  0  0  0  0  0  0  0  0  0  0
    6.3769   -0.4375    0.0000 C   0  0  0  0  0  0  0  0  0  0  0  0
    3.3524   -1.6954    0.0000 C   0  0  0  0  0  0  0  0  0  0  0  0
    6.3769   -2.0875    0.0000 C   0  0  0  0  0  0  0  0  0  0  0  0
    7.0914   -0.8500    0.0000 C   0  0  0  0  0  0  0  0  0  0  0  0
    7.0914   -1.6750    0.0000 C   0  0  0  0  0  0  0  0  0  0  0  0
    2.0768    0.4490    0.0000 C   0  0  0  0  0  0  0  0  0  0  0  0
    2.9427   -2.4114    0.0000 C   0  0  0  0  0  0  0  0  0  0  0  0
    7.8289   -0.4089    0.0000 C   0  0  0  0  0  0  0  0  0  0  0  0
    7.8289   -2.1161    0.0000 C   0  0  0  0  0  0  0  0  0  0  0  0
    8.5764   -0.8328    0.0000 C   0  0  0  0  0  0  0  0  0  0  0  0
    8.5764   -1.6921    0.0000 C   0  0  0  0  0  0  0  0  0  0  0  0
    9.3445   -0.3734    0.0000 C   0  0  0  0  0  0  0  0  0  0  0  0
    9.3445   -2.1516    0.0000 C   0  0  0  0  0  0  0  0  0  0  0  0
   10.1232   -0.8149    0.0000 C   0  0  0  0  0  0  0  0  0  0  0  0
   10.1232   -1.7100    0.0000 C   0  0  0  0  0  0  0  0  0  0  0  0
   10.0446    0.8723    0.0000 C   0  0  0  0  0  0  0  0  0  0  0  0
 13  1  1  6
 19  1  1  6
  2 19  1  0
  2 23  1  0
 14  3  1  6
 22  4  1  6
  5 24  1  0
  6 26  1  0
  7 25  2  0
  8 30  1  0
  9 31  2  0
 10 32  2  0
 11 35  1  0
 11 39  1  0
 21 12  1  1
 13 15  1  0
 13 17  1  0
 14 15  1  0
 14 16  1  0
 14 25  1  0
 16 18  1  0
 17 18  2  0
 17 24  1  0
 18 26  1  0
 19 20  1  0
 20 21  1  0
 21 22  1  0
 22 23  1  0
 23 29  1  1
 24 27  2  0
 25 30  1  0
 26 28  2  0
 27 28  1  0
 27 31  1  0
 28 32  1  0
 31 33  1  0
 32 34  1  0
 33 34  2  0
 33 35  1  0
 34 36  1  0
 35 37  2  0
 36 38  2  0
 37 38  1  0
M  END
$$$$
