170
     RDKit          2D

 13 14  0  0  0  0  0  0  0  0999 V2000
    3.0786   -1.6498    0.0000 O   0  0  0  0  0  0  0  0  0  0  0  0
    3.0786    1.6498    0.0000 O   0  0  0  0  0  0  0  0  0  0  0  0
    3.7929   -0.4124    0.0000 C   0  0  0  0  0  0  0  0  0  0  0  0
    3.7929    0.4124    0.0000 C   0  0  0  0  0  0  0  0  0  0  0  0
    2.3641   -0.4124    0.0000 C   0  0  0  0  0  0  0  0  0  0  0  0
    3.0786   -0.8249    0.0000 C   0  0  0  0  0  0  0  0  0  0  0  0
    3.0786    0.8249    0.0000 C   0  0  0  0  0  0  0  0  0  0  0  0
    2.3641    0.4124    0.0000 C   0  0  0  0  0  0  0  0  0  0  0  0
    4.5303   -0.8535    0.0000 C   0  0  0  0  0  0  0  0  0  0  0  0
    4.5303    0.8535    0.0000 C   0  0  0  0  0  0  0  0  0  0  0  0
    1.6498   -0.8249    0.0000 C   0  0  0  0  0  0  0  0  0  0  0  0
    5.2777   -0.4296    0.0000 C   0  0  0  0  0  0  0  0  0  0  0  0
    5.2777    0.4296    0.0000 C   0  0  0  0  0  0  0  0  0  0  0  0
  1  6  2  0
  2  7  2  0
  3  4  2  0
  3  6  1  0
  3  9  1  0
  4  7  1  0
  4 10  1  0
  5  6  1  0
  5  8  2  0
  5 11  1  0
  7  8  1  0
  9 12  2  0
 10 13  2  0
 12 13  1  0
M  END
$$$$
