993
     RDKit          2D

 19 21  0  0  0  0  0  0  0  0999 V2000
    3.6703   -0.0585    0.0000 S   0  0  0  0  0  0  0  0  0  0  0  0
    3.3111    2.5335    0.0000 O   0  0  0  0  0  0  0  0  0  0  0  0
    4.2672    1.4716    0.0000 O   0  0  0  0  0  0  0  0  0  0  0  0
    2.2021    0.0185    0.0000 N   0  0  0  0  0  0  0  0  0  0  0  0
    5.1654   -1.0446    0.0000 N   0  0  0  0  0  0  0  0  0  0  0  0
    2.0625    1.3460    0.0000 N   0  0  0  0  0  0  0  0  0  0  0  0
    2.9558   -1.2960    0.0000 N   0  0  0  0  0  0  0  0  0  0  0  0
    5.1654   -2.3724    0.0000 N   0  0  0  0  0  0  0  0  0  0  0  0
    3.4826    1.7266    0.0000 N   0  0  0  0  0  0  0  0  0  0  0  0
    3.6703   -2.5335    0.0000 N   0  0  0  0  0  0  0  0  0  0  0  0
    2.9558    0.3540    0.0000 C   0  0  0  0  0  0  0  0  0  0  0  0
    4.3847   -1.2960    0.0000 C   0  0  0  0  0  0  0  0  0  0  0  0
    3.6703   -0.8835    0.0000 C   0  0  0  0  0  0  0  0  0  0  0  0
    2.8695    1.1745    0.0000 C   0  0  0  0  0  0  0  0  0  0  0  0
    1.6500    0.6316    0.0000 C   0  0  0  0  0  0  0  0  0  0  0  0
    4.3847   -2.1210    0.0000 C   0  0  0  0  0  0  0  0  0  0  0  0
    2.0305   -0.7886    0.0000 C   0  0  0  0  0  0  0  0  0  0  0  0
    5.6469   -1.7085    0.0000 C   0  0  0  0  0  0  0  0  0  0  0  0
    2.9558   -2.1210    0.0000 C   0  0  0  0  0  0  0  0  0  0  0  0
  1 11  1  0
  1 13  1  0
  2  9  1  0
  3  9  2  0
  4 11  1  0
  4 15  1  0
  4 17  1  0
  5 12  1  0
  5 18  1  0
  6 14  1  0
  6 15  2  0
  7 13  1  0
  7 19  2  0
  8 16  1  0
  8 18  2  0
  9 14  1  0
 10 16  2  0
 10 19  1  0
 11 14  2  0
 12 13  2  0
 12 16  1  0
M  CHG  2   2  -1   9   1
M  END
$$$$
