915
     RDKit          2D

 11 13  0  0  0  0  0  0  0  0999 V2000
    3.1364    1.3022    0.0000 N   0  0  0  0  0  0  0  0  0  0  0  0
    3.1364    0.4484    0.0000 C   0  0  0  0  0  0  0  0  0  0  0  0
    3.8503   -0.7882    0.0000 C   0  0  0  0  0  0  0  0  0  0  0  0
    2.5461   -1.1598    0.0000 C   0  0  0  0  0  0  0  0  0  0  0  0
    2.4222   -0.7882    0.0000 C   0  0  0  0  0  0  0  0  0  0  0  0
    3.8503    0.0361    0.0000 C   0  0  0  0  0  0  0  0  0  0  0  0
    2.5461   -0.2672    0.0000 C   0  0  0  0  0  0  0  0  0  0  0  0
    2.4222    0.0361    0.0000 C   0  0  0  0  0  0  0  0  0  0  0  0
    3.3196   -1.5668    0.0000 C   0  0  0  0  0  0  0  0  0  0  0  0
    3.1364   -1.0469    0.0000 C   0  0  0  0  0  0  0  0  0  0  0  0
    1.7077   -1.2006    0.0000 C   0  0  0  0  0  0  0  0  0  0  0  0
  1  2  1  0
  2  6  1  0
  2  7  1  0
  2  8  1  0
  3  6  1  0
  3  9  1  0
  3 10  1  0
  4  7  1  0
  4  9  1  0
  4 11  1  0
  5  8  1  0
  5 10  1  0
  5 11  1  0
M  END
$$$$
