
     RDKit          2D

 31 33  0  0  1  0  0  0  0  0999 V2000
   -2.7399    4.6525    0.0000 C   0  0  0  0  0  0  0  0  0  0  0  0
   -2.0254    3.4150    0.0000 C   0  0  0  0  0  0  0  0  0  0  0  0
   -1.3109    4.6525    0.0000 C   0  0  0  0  0  0  0  0  0  0  0  0
   -3.4544    4.2400    0.0000 C   0  0  0  0  0  0  0  0  0  0  0  0
   -2.7399    3.0025    0.0000 C   0  0  0  0  0  0  0  0  0  0  0  0
   -0.5965    4.2400    0.0000 C   0  0  0  0  0  0  0  0  0  0  0  0
   -6.3122    3.4150    0.0000 C   0  0  0  0  0  0  0  0  0  0  0  0
   -7.0267    3.0025    0.0000 C   0  0  0  0  0  0  0  0  0  0  0  0
    0.8717    4.3170    0.0000 C   0  0  0  0  0  0  0  0  0  0  0  0
   -2.0254    4.2400    0.0000 C   0  0  0  0  0  0  0  0  0  0  0  0
   -3.4544    3.4150    0.0000 C   0  0  0  0  0  0  0  0  0  0  0  0
    0.1180    4.6525    0.0000 C   0  0  0  0  0  0  0  0  0  0  0  0
   -5.5978    3.0025    0.0000 C   0  0  0  0  0  0  0  0  0  0  0  0
   -7.7412    3.4150    0.0000 C   0  0  0  0  0  0  0  0  0  0  0  0
    0.2042    5.4730    0.0000 C   0  0  0  0  0  0  0  0  0  0  0  0
    1.0112    5.6445    0.0000 C   0  0  0  0  0  0  0  0  0  0  0  0
   -4.1688    3.0025    0.0000 C   0  0  0  0  0  0  0  0  0  0  0  0
   -0.3478    6.0861    0.0000 C   0  0  0  0  0  0  0  0  0  0  0  0
   -5.5978    2.1775    0.0000 C   0  0  0  0  0  0  0  0  0  0  0  0
    0.7141    7.0422    0.0000 C   0  0  0  0  0  0  0  0  0  0  0  0
    0.9690    7.8269    0.0000 N   0  0  0  0  0  0  0  0  0  0  0  0
    1.4237    4.9301    0.0000 N   0  0  0  0  0  0  0  0  0  0  0  0
   -4.8833    3.4150    0.0000 N   0  0  0  0  0  0  0  0  0  0  0  0
    1.2661    6.4292    0.0000 N   0  0  0  0  0  0  0  0  0  0  0  0
   -0.0929    6.8707    0.0000 N   0  0  0  0  0  0  0  0  0  0  0  0
   -8.4557    3.0025    0.0000 O   0  0  0  0  0  0  0  0  0  0  0  0
   -7.7412    4.2400    0.0000 O   0  0  0  0  0  0  0  0  0  0  0  0
   -4.1688    2.1775    0.0000 O   0  0  0  0  0  0  0  0  0  0  0  0
   -1.1548    5.9146    0.0000 O   0  0  0  0  0  0  0  0  0  0  0  0
   -4.8833    1.7650    0.0000 O   0  0  0  0  0  0  0  0  0  0  0  0
   -6.3122    1.7650    0.0000 O   0  0  0  0  0  0  0  0  0  0  0  0
  4  1  2  0
  5  2  1  0
  6  3  1  0
  8  7  1  0
 10  1  1  0
 10  2  2  0
 10  3  1  0
 11  4  1  0
 11  5  2  0
 12  6  1  0
 12  9  2  0
 13  7  1  6
 14  8  1  0
 15 12  1  0
 16 15  2  0
 17 11  1  0
 18 15  1  0
 19 13  1  0
 21 20  2  3
 22  9  1  0
 22 16  1  0
 13 23  1  0
 23 17  1  0
 24 16  1  0
 24 20  1  0
 25 18  2  0
 25 20  1  0
 26 14  2  0
 27 14  1  0
 28 17  2  0
 29 18  1  0
 30 19  2  0
 31 19  1  0
M  END
$$$$
