193
     RDKit          2D

 19 20  0  0  1  0  0  0  0  0999 V2000
    4.0955    0.4678    0.0000 O   0  0  0  0  0  0  0  0  0  0  0  0
    6.9830    1.1823    0.0000 O   0  0  0  0  0  0  0  0  0  0  0  0
    2.3645   -0.6592    0.0000 N   0  0  0  0  0  0  0  0  0  0  0  0
    3.7935   -0.6592    0.0000 C   0  0  0  0  0  0  0  0  0  0  0  0
    4.5080   -0.2467    0.0000 C   0  0  0  0  0  0  0  0  0  0  0  0
    3.7935   -1.4842    0.0000 C   0  0  0  0  0  0  0  0  0  0  0  0
    5.2224   -0.6592    0.0000 C   0  0  0  0  0  0  0  0  0  0  0  0
    4.5080   -1.8967    0.0000 C   0  0  0  0  0  0  0  0  0  0  0  0
    5.2224   -1.4842    0.0000 C   0  0  0  0  0  0  0  0  0  0  0  0
    3.0791   -0.2467    0.0000 C   0  0  0  0  0  0  0  0  0  0  0  0
    4.9205    0.4678    0.0000 C   0  0  0  0  0  0  0  0  0  0  0  0
    5.7455    0.4678    0.0000 C   0  0  0  0  0  0  0  0  0  0  0  0
    4.5080    1.1823    0.0000 C   0  0  0  0  0  0  0  0  0  0  0  0
    1.6500   -0.2467    0.0000 C   0  0  0  0  0  0  0  0  0  0  0  0
    2.3645   -1.4842    0.0000 C   0  0  0  0  0  0  0  0  0  0  0  0
    6.1580    1.1823    0.0000 C   0  0  0  0  0  0  0  0  0  0  0  0
    4.9205    1.8967    0.0000 C   0  0  0  0  0  0  0  0  0  0  0  0
    5.7455    1.8967    0.0000 C   0  0  0  0  0  0  0  0  0  0  0  0
    7.3955    1.8967    0.0000 C   0  0  0  0  0  0  0  0  0  0  0  0
  5  1  1  6
  2 16  1  0
  2 19  1  0
  3 10  1  0
  3 14  1  0
  3 15  1  0
  4  5  1  0
  4  6  1  0
  4 10  1  6
  5  7  1  0
  5 11  1  0
  6  8  1  0
  7  9  1  0
  8  9  1  0
 11 12  2  0
 11 13  1  0
 12 16  1  0
 13 17  2  0
 16 18  2  0
 17 18  1  0
M  END
$$$$
