540
     RDKit          2D

 20 22  0  0  0  0  0  0  0  0999 V2000
    2.5991   -1.7284    0.0000 N   0  0  0  0  0  0  0  0  0  0  0  0
    4.4402    2.5532    0.0000 C   0  0  0  0  0  0  0  0  0  0  0  0
    3.6154    2.5532    0.0000 C   0  0  0  0  0  0  0  0  0  0  0  0
    4.9546    1.9082    0.0000 C   0  0  0  0  0  0  0  0  0  0  0  0
    3.1010    1.9082    0.0000 C   0  0  0  0  0  0  0  0  0  0  0  0
    4.0279    0.7462    0.0000 C   0  0  0  0  0  0  0  0  0  0  0  0
    4.7710    1.1041    0.0000 C   0  0  0  0  0  0  0  0  0  0  0  0
    3.2845    1.1041    0.0000 C   0  0  0  0  0  0  0  0  0  0  0  0
    4.0279   -0.0786    0.0000 C   0  0  0  0  0  0  0  0  0  0  0  0
    5.7715    2.1741    0.0000 C   0  0  0  0  0  0  0  0  0  0  0  0
    2.2840    2.1741    0.0000 C   0  0  0  0  0  0  0  0  0  0  0  0
    5.3918    0.5102    0.0000 C   0  0  0  0  0  0  0  0  0  0  0  0
    2.6639    0.5102    0.0000 C   0  0  0  0  0  0  0  0  0  0  0  0
    3.3134   -0.4911    0.0000 C   0  0  0  0  0  0  0  0  0  0  0  0
    6.4059    1.5947    0.0000 C   0  0  0  0  0  0  0  0  0  0  0  0
    1.6498    1.5948    0.0000 C   0  0  0  0  0  0  0  0  0  0  0  0
    3.3133   -1.3159    0.0000 C   0  0  0  0  0  0  0  0  0  0  0  0
    6.2147    0.7569    0.0000 C   0  0  0  0  0  0  0  0  0  0  0  0
    1.8408    0.7569    0.0000 C   0  0  0  0  0  0  0  0  0  0  0  0
    2.5991   -2.5532    0.0000 C   0  0  0  0  0  0  0  0  0  0  0  0
  1 17  1  0
  1 20  1  0
  2  3  1  0
  2  4  1  0
  3  5  1  0
  4  7  2  0
  4 10  1  0
  5  8  2  0
  5 11  1  0
  6  7  1  0
  6  8  1  0
  6  9  2  0
  7 12  1  0
  8 13  1  0
  9 14  1  0
 10 15  2  0
 11 16  2  0
 12 18  2  0
 13 19  2  0
 14 17  1  0
 15 18  1  0
 16 19  1  0
M  END
$$$$
