494
     RDKit          2D

 22 22  0  0  0  0  0  0  0  0999 V2000
    3.7935    1.9842    0.0000 O   0  0  0  0  0  0  0  0  0  0  0  0
    5.2224   -2.1409    0.0000 O   0  0  0  0  0  0  0  0  0  0  0  0
    3.7935   -2.9659    0.0000 O   0  0  0  0  0  0  0  0  0  0  0  0
    1.6500   -1.7284    0.0000 O   0  0  0  0  0  0  0  0  0  0  0  0
    2.3645   -2.9659    0.0000 O   0  0  0  0  0  0  0  0  0  0  0  0
    5.2224    1.9842    0.0000 N   0  0  0  0  0  0  0  0  0  0  0  0
    2.3645   -2.1409    0.0000 N   0  0  0  0  0  0  0  0  0  0  0  0
    5.9370   -0.0784    0.0000 N   0  0  0  0  0  0  0  0  0  0  0  0
    5.2224    2.8092    0.0000 C   0  0  0  0  0  0  0  0  0  0  0  0
    5.9370    1.5717    0.0000 C   0  0  0  0  0  0  0  0  0  0  0  0
    4.5080    1.5717    0.0000 C   0  0  0  0  0  0  0  0  0  0  0  0
    5.9370    3.2217    0.0000 C   0  0  0  0  0  0  0  0  0  0  0  0
    6.6515    1.9842    0.0000 C   0  0  0  0  0  0  0  0  0  0  0  0
    3.7935   -0.4909    0.0000 C   0  0  0  0  0  0  0  0  0  0  0  0
    4.5080    0.7466    0.0000 C   0  0  0  0  0  0  0  0  0  0  0  0
    3.7935    0.3341    0.0000 C   0  0  0  0  0  0  0  0  0  0  0  0
    3.0791   -0.9034    0.0000 C   0  0  0  0  0  0  0  0  0  0  0  0
    4.5080   -0.9034    0.0000 C   0  0  0  0  0  0  0  0  0  0  0  0
    3.0791   -1.7284    0.0000 C   0  0  0  0  0  0  0  0  0  0  0  0
    4.5080   -1.7284    0.0000 C   0  0  0  0  0  0  0  0  0  0  0  0
    3.7935   -2.1409    0.0000 C   0  0  0  0  0  0  0  0  0  0  0  0
    5.2224    0.3341    0.0000 C   0  0  0  0  0  0  0  0  0  0  0  0
  1 11  2  0
  2 20  1  0
  3 21  1  0
  4  7  1  0
  5  7  2  0
  6  9  1  0
  6 10  1  0
  6 11  1  0
  7 19  1  0
  8 22  3  0
  9 12  1  0
 10 13  1  0
 11 15  1  0
 14 16  1  0
 14 17  2  0
 14 18  1  0
 15 16  2  0
 15 22  1  0
 17 19  1  0
 18 20  2  0
 19 21  2  0
 20 21  1  0
M  CHG  2   4  -1   7   1
M  END
$$$$
