54841
     RDKit          2D

 19 20  0  0  1  0  0  0  0  0999 V2000
    3.0790   -0.2063    0.0000 O   0  0  0  0  0  0  0  0  0  0  0  0
    5.9370   -0.2063    0.0000 N   0  0  0  0  0  0  0  0  0  0  0  0
    3.7935    0.2063    0.0000 C   0  0  0  0  0  0  0  0  0  0  0  0
    4.5080   -0.2063    0.0000 C   0  0  0  0  0  0  0  0  0  0  0  0
    3.7935    1.0313    0.0000 C   0  0  0  0  0  0  0  0  0  0  0  0
    5.2224    0.2063    0.0000 C   0  0  0  0  0  0  0  0  0  0  0  0
    3.0790   -1.0313    0.0000 C   0  0  0  0  0  0  0  0  0  0  0  0
    4.5080    1.4438    0.0000 C   0  0  0  0  0  0  0  0  0  0  0  0
    3.0790    1.4438    0.0000 C   0  0  0  0  0  0  0  0  0  0  0  0
    2.3645   -1.4438    0.0000 C   0  0  0  0  0  0  0  0  0  0  0  0
    4.5080    2.2688    0.0000 C   0  0  0  0  0  0  0  0  0  0  0  0
    3.0790    2.2688    0.0000 C   0  0  0  0  0  0  0  0  0  0  0  0
    3.7935   -1.4438    0.0000 C   0  0  0  0  0  0  0  0  0  0  0  0
    3.7935    2.6813    0.0000 C   0  0  0  0  0  0  0  0  0  0  0  0
    6.6515    0.2063    0.0000 C   0  0  0  0  0  0  0  0  0  0  0  0
    2.3645   -2.2688    0.0000 C   0  0  0  0  0  0  0  0  0  0  0  0
    1.6500   -1.0313    0.0000 C   0  0  0  0  0  0  0  0  0  0  0  0
    3.7935   -2.2688    0.0000 C   0  0  0  0  0  0  0  0  0  0  0  0
    3.0790   -2.6813    0.0000 C   0  0  0  0  0  0  0  0  0  0  0  0
  3  1  1  0
  1  7  1  0
  2  6  1  0
  2 15  1  0
  3  4  1  1
  3  5  1  0
  4  6  1  0
  5  8  2  0
  5  9  1  0
  7 10  2  0
  7 13  1  0
  8 11  1  0
  9 12  2  0
 10 16  1  0
 10 17  1  0
 11 14  2  0
 12 14  1  0
 13 18  2  0
 16 19  2  0
 18 19  1  0
M  END
$$$$
