
     RDKit          2D

  7  6  0  0  0  0  0  0  0  0999 V2000
    2.8075   -0.2615    0.0000 P   0  0  0  0  0  0  0  0  0  0  0  0
    2.0930   -0.6740    0.0000 O   0  0  0  0  0  0  0  0  0  0  0  0
    2.3950    0.4529    0.0000 O   0  0  0  0  0  0  0  0  0  0  0  0
    3.2200   -0.9760    0.0000 O   0  0  0  0  0  0  0  0  0  0  0  0
    4.2365   -0.2615    0.0000 O   0  0  0  0  0  0  0  0  0  0  0  0
    3.5220    0.9760    0.0000 O   0  0  0  0  0  0  0  0  0  0  0  0
    3.5220    0.1510    0.0000 C   0  0  0  0  0  0  0  0  0  0  0  0
  1  2  1  0
  1  3  1  0
  1  4  2  0
  1  7  1  0
  5  7  1  0
  6  7  2  0
M  END
$$$$
