697
     RDKit          2D

 16 18  0  0  0  0  0  0  0  0999 V2000
    2.2413   -0.3751    0.0000 Cl  0  0  0  0  0  0  0  0  0  0  0  0
    5.6469   -1.2002    0.0000 S   0  0  0  0  0  0  0  0  0  0  0  0
    2.8695    1.6829    0.0000 N   0  0  0  0  0  0  0  0  0  0  0  0
    3.6703    0.4499    0.0000 N   0  0  0  0  0  0  0  0  0  0  0  0
    2.2021    0.5269    0.0000 N   0  0  0  0  0  0  0  0  0  0  0  0
    5.1654   -0.5363    0.0000 N   0  0  0  0  0  0  0  0  0  0  0  0
    5.1654   -1.8640    0.0000 N   0  0  0  0  0  0  0  0  0  0  0  0
    2.0625    1.8544    0.0000 C   0  0  0  0  0  0  0  0  0  0  0  0
    1.6500    1.1399    0.0000 C   0  0  0  0  0  0  0  0  0  0  0  0
    2.9558    0.8624    0.0000 C   0  0  0  0  0  0  0  0  0  0  0  0
    3.6703   -0.3751    0.0000 C   0  0  0  0  0  0  0  0  0  0  0  0
    4.3847   -0.7876    0.0000 C   0  0  0  0  0  0  0  0  0  0  0  0
    4.3847   -1.6127    0.0000 C   0  0  0  0  0  0  0  0  0  0  0  0
    2.9558   -0.7876    0.0000 C   0  0  0  0  0  0  0  0  0  0  0  0
    3.6703   -2.0252    0.0000 C   0  0  0  0  0  0  0  0  0  0  0  0
    2.9558   -1.6127    0.0000 C   0  0  0  0  0  0  0  0  0  0  0  0
  1 14  1  0
  2  6  1  0
  2  7  1  0
  3  8  1  0
  3 10  1  0
  4 10  1  0
  4 11  1  0
  5  9  1  0
  5 10  2  0
  6 12  2  0
  7 13  2  0
  8  9  1  0
 11 12  1  0
 11 14  2  0
 12 13  1  0
 13 15  1  0
 14 16  1  0
 15 16  2  0
M  END
$$$$
