202
     RDKit          2D

 20 19  0  0  0  0  0  0  0  0999 V2000
    4.5077    0.2063    0.0000 O   0  0  0  0  0  0  0  0  0  0  0  0
    8.0799   -0.2063    0.0000 O   0  0  0  0  0  0  0  0  0  0  0  0
    5.2221   -1.0312    0.0000 O   0  0  0  0  0  0  0  0  0  0  0  0
    7.3655    1.0312    0.0000 O   0  0  0  0  0  0  0  0  0  0  0  0
    2.3644   -0.2063    0.0000 N   0  0  0  0  0  0  0  0  0  0  0  0
   10.2233    0.2063    0.0000 N   0  0  0  0  0  0  0  0  0  0  0  0
    3.0789    0.2063    0.0000 C   0  0  0  0  0  0  0  0  0  0  0  0
    9.5088   -0.2063    0.0000 C   0  0  0  0  0  0  0  0  0  0  0  0
    2.7768   -0.9206    0.0000 C   0  0  0  0  0  0  0  0  0  0  0  0
    1.9519    0.5082    0.0000 C   0  0  0  0  0  0  0  0  0  0  0  0
    1.6499   -0.6188    0.0000 C   0  0  0  0  0  0  0  0  0  0  0  0
   10.6358   -0.5082    0.0000 C   0  0  0  0  0  0  0  0  0  0  0  0
    9.8108    0.9206    0.0000 C   0  0  0  0  0  0  0  0  0  0  0  0
   10.9376    0.6188    0.0000 C   0  0  0  0  0  0  0  0  0  0  0  0
    3.7933   -0.2063    0.0000 C   0  0  0  0  0  0  0  0  0  0  0  0
    8.7944    0.2063    0.0000 C   0  0  0  0  0  0  0  0  0  0  0  0
    5.9366    0.2063    0.0000 C   0  0  0  0  0  0  0  0  0  0  0  0
    6.6511   -0.2063    0.0000 C   0  0  0  0  0  0  0  0  0  0  0  0
    5.2221   -0.2063    0.0000 C   0  0  0  0  0  0  0  0  0  0  0  0
    7.3655    0.2063    0.0000 C   0  0  0  0  0  0  0  0  0  0  0  0
  1 15  1  0
  1 19  1  0
  2 16  1  0
  2 20  1  0
  3 19  2  0
  4 20  2  0
  5  7  1  0
  5  9  1  0
  5 10  1  0
  5 11  1  0
  6  8  1  0
  6 12  1  0
  6 13  1  0
  6 14  1  0
  7 15  1  0
  8 16  1  0
 17 18  1  0
 17 19  1  0
 18 20  1  0
M  CHG  2   5   1   6   1
M  END
$$$$
