
     RDKit          2D

 44 47  0  0  1  0  0  0  0  0999 V2000
    5.3033   -4.8395    0.0000 C   0  0  0  0  0  0  0  0  0  0  0  0
    6.4302   -4.5375    0.0000 C   0  0  0  0  0  0  0  0  0  0  0  0
    5.0013   -3.7125    0.0000 C   0  0  0  0  0  0  0  0  0  0  0  0
    2.5559   -2.9980    0.0000 C   0  0  0  0  0  0  0  0  0  0  0  0
    6.8427    4.4270    0.0000 C   0  0  0  0  0  0  0  0  0  0  0  0
    3.2704   -3.4105    0.0000 C   0  0  0  0  0  0  0  0  0  0  0  0
    2.5559   -2.1730    0.0000 C   0  0  0  0  0  0  0  0  0  0  0  0
    6.1283    4.0145    0.0000 C   0  0  0  0  0  0  0  0  0  0  0  0
    7.5572    4.0145    0.0000 C   0  0  0  0  0  0  0  0  0  0  0  0
    3.9849   -2.9980    0.0000 C   0  0  0  0  0  0  0  0  0  0  0  0
    3.2704   -1.7605    0.0000 C   0  0  0  0  0  0  0  0  0  0  0  0
    6.1283    3.1895    0.0000 C   0  0  0  0  0  0  0  0  0  0  0  0
    7.5572    3.1895    0.0000 C   0  0  0  0  0  0  0  0  0  0  0  0
    4.2868    0.0000    0.0000 C   0  0  0  0  0  0  0  0  0  0  0  0
    5.1118    0.0000    0.0000 C   0  0  0  0  0  0  0  0  0  0  0  0
    4.6993   -1.7605    0.0000 C   0  0  0  0  0  0  0  0  0  0  0  0
    6.8427    1.9520    0.0000 C   0  0  0  0  0  0  0  0  0  0  0  0
    7.5572   -0.9355    0.0000 C   0  0  0  0  0  0  0  0  0  0  0  0
    9.0254   -0.8586    0.0000 C   0  0  0  0  0  0  0  0  0  0  0  0
    5.4138   -2.9980    0.0000 C   0  0  0  0  0  0  0  0  0  0  0  0
    9.1649    0.4690    0.0000 C   0  0  0  0  0  0  0  0  0  0  0  0
    3.9849   -2.1730    0.0000 C   0  0  0  0  0  0  0  0  0  0  0  0
    6.8427    2.7770    0.0000 C   0  0  0  0  0  0  0  0  0  0  0  0
    4.6993    0.7145    0.0000 C   0  0  0  0  0  0  0  0  0  0  0  0
    5.4138   -2.1730    0.0000 C   0  0  0  0  0  0  0  0  0  0  0  0
    8.2717   -0.5230    0.0000 C   0  0  0  0  0  0  0  0  0  0  0  0
    6.1283    1.5395    0.0000 C   0  0  0  0  0  0  0  0  0  0  0  0
    6.8427   -0.5230    0.0000 C   0  0  0  0  0  0  0  0  0  0  0  0
    4.6993    1.5395    0.0000 C   0  0  0  0  0  0  0  0  0  0  0  0
    5.4138    1.9520    0.0000 C   0  0  0  0  0  0  0  0  0  0  0  0
    6.1283   -1.7605    0.0000 C   0  0  0  0  0  0  0  0  0  0  0  0
    6.8427    0.3020    0.0000 C   0  0  0  0  0  0  0  0  0  0  0  0
    5.7158   -4.1250    0.0000 C   0  0  0  0  0  0  0  0  0  0  0  0
    9.5774   -0.2455    0.0000 N   0  0  0  0  0  0  0  0  0  0  0  0
    8.3579    0.2975    0.0000 N   0  0  0  0  0  0  0  0  0  0  0  0
    6.1283    0.7145    0.0000 N   0  0  0  0  0  0  0  0  0  0  0  0
    6.1283   -0.9355    0.0000 N   0  0  0  0  0  0  0  0  0  0  0  0
    3.9849    1.9520    0.0000 O   0  0  0  0  0  0  0  0  0  0  0  0
    5.4138    2.7770    0.0000 O   0  0  0  0  0  0  0  0  0  0  0  0
    6.8427   -2.1730    0.0000 O   0  0  0  0  0  0  0  0  0  0  0  0
    7.5572    0.7145    0.0000 O   0  0  0  0  0  0  0  0  0  0  0  0
    6.8427   -3.8230    0.0000 O   0  0  0  0  0  0  0  0  0  0  0  0
    6.5408   -2.6961    0.0000 O   0  0  0  0  0  0  0  0  0  0  0  0
    6.1283   -3.4105    0.0000 S   0  0  0  0  0  0  0  0  0  0  0  0
  6  4  2  0
  7  4  1  0
  8  5  1  0
  9  5  1  0
 10  6  1  0
 11  7  2  0
 12  8  1  0
 13  9  1  0
 15 14  1  0
 22 10  2  0
 22 11  1  0
 22 16  1  0
 23 12  1  0
 23 13  1  0
 23 17  1  0
 24 14  1  0
 24 15  1  0
 25 16  1  1
 25 20  1  0
 26 18  1  0
 26 19  2  0
 27 17  1  6
 28 18  1  6
 29 24  1  0
 30 27  1  0
 30 29  1  0
 25 31  1  0
 32 28  1  0
 33  1  1  0
 33  2  1  0
 33  3  1  0
 34 19  1  0
 34 21  2  0
 35 21  1  0
 35 26  1  0
 27 36  1  0
 36 32  2  3
 28 37  1  0
 37 31  2  3
 29 38  1  6
 30 39  1  6
 31 40  1  0
 32 41  1  0
 44 20  1  0
 44 33  1  0
 44 42  2  0
 44 43  2  0
M  END
$$$$
