421
     RDKit          2D

 29 33  0  0  1  0  0  0  0  0999 V2000
    3.0788   -0.3101    0.0000 S   0  0  0  0  0  0  0  0  0  0  0  0
    5.9017   -2.2620    0.0000 O   0  0  0  0  0  0  0  0  0  0  0  0
    7.0427   -3.1892    0.0000 O   0  0  0  0  0  0  0  0  0  0  0  0
    5.2976    3.5672    0.0000 O   0  0  0  0  0  0  0  0  0  0  0  0
    2.3501    0.9190    0.0000 O   0  0  0  0  0  0  0  0  0  0  0  0
    5.2537   -1.5451    0.0000 C   0  0  0  0  0  0  0  0  0  0  0  0
    4.5392   -1.1326    0.0000 C   0  0  0  0  0  0  0  0  0  0  0  0
    4.5392   -0.3076    0.0000 C   0  0  0  0  0  0  0  0  0  0  0  0
    5.0811   -2.3468    0.0000 C   0  0  0  0  0  0  0  0  0  0  0  0
    5.2537    0.1049    0.0000 C   0  0  0  0  0  0  0  0  0  0  0  0
    5.9682   -1.1326    0.0000 C   0  0  0  0  0  0  0  0  0  0  0  0
    3.9312   -1.6829    0.0000 C   0  0  0  0  0  0  0  0  0  0  0  0
    5.2670    0.9642    0.0000 C   0  0  0  0  0  0  0  0  0  0  0  0
    5.9682   -0.3076    0.0000 C   0  0  0  0  0  0  0  0  0  0  0  0
    4.2654   -2.4319    0.0000 C   0  0  0  0  0  0  0  0  0  0  0  0
    3.7885    0.1106    0.0000 C   0  0  0  0  0  0  0  0  0  0  0  0
    6.0662   -1.6884    0.0000 C   0  0  0  0  0  0  0  0  0  0  0  0
    4.9082   -3.1535    0.0000 C   0  0  0  0  0  0  0  0  0  0  0  0
    4.5261    1.3996    0.0000 C   0  0  0  0  0  0  0  0  0  0  0  0
    3.7819    0.9699    0.0000 C   0  0  0  0  0  0  0  0  0  0  0  0
    6.0523    1.3937    0.0000 C   0  0  0  0  0  0  0  0  0  0  0  0
    5.9783    0.5462    0.0000 C   0  0  0  0  0  0  0  0  0  0  0  0
    5.6220   -3.5672    0.0000 C   0  0  0  0  0  0  0  0  0  0  0  0
    6.2360   -3.0163    0.0000 C   0  0  0  0  0  0  0  0  0  0  0  0
    6.0661    2.2887    0.0000 C   0  0  0  0  0  0  0  0  0  0  0  0
    4.5192    2.2947    0.0000 C   0  0  0  0  0  0  0  0  0  0  0  0
    5.2944    2.7422    0.0000 C   0  0  0  0  0  0  0  0  0  0  0  0
    2.3597    0.0941    0.0000 C   0  0  0  0  0  0  0  0  0  0  0  0
    1.6500   -0.3267    0.0000 C   0  0  0  0  0  0  0  0  0  0  0  0
 16  1  1  6
  1 28  1  0
  9  2  1  0
  2 24  1  0
  3 24  2  0
  4 27  2  0
  5 28  2  0
  6  7  1  0
  6  9  1  0
  6 11  1  0
  6 17  1  1
  7  8  1  0
  7 12  1  1
  8 10  1  0
  8 16  1  6
  9 15  1  1
  9 18  1  0
 10 13  1  0
 10 14  1  1
 11 14  1  0
 12 15  1  0
 13 19  1  0
 13 21  1  0
 13 22  1  1
 16 20  1  0
 18 23  1  0
 19 20  1  0
 19 26  2  0
 21 25  1  0
 23 24  1  0
 25 27  1  0
 26 27  1  0
 28 29  1  0
M  END
$$$$
