
     RDKit          2D

  5  4  0  0  0  0  0  0  0  0999 V2000
    2.3645    0.8250    0.0000 O   0  0  0  0  0  0  0  0  0  0  0  0
    2.3645   -0.8250    0.0000 O   0  0  0  0  0  0  0  0  0  0  0  0
    3.1895    0.0000    0.0000 O   0  0  0  0  0  0  0  0  0  0  0  0
    2.3645    0.0000    0.0000 S   0  0  0  0  0  0  0  0  0  0  0  0
    1.5395    0.0000    0.0000 O   0  0  0  0  0  0  0  0  0  0  0  0
  1  4  1  0
  4  2  1  0
  4  3  2  0
  4  5  2  0
M  CHG  2   1  -1   2  -1
M  END
$$$$
