232
     RDKit          2D

 20 21  0  0  1  0  0  0  0  0999 V2000
    1.6498    1.7106    0.0000 Cl  0  0  0  0  0  0  0  0  0  0  0  0
    5.9905    0.9057    0.0000 Cl  0  0  0  0  0  0  0  0  0  0  0  0
    3.0786   -0.7641    0.0000 S   0  0  0  0  0  0  0  0  0  0  0  0
    5.9905   -0.7840    0.0000 S   0  0  0  0  0  0  0  0  0  0  0  0
    3.4910   -1.4784    0.0000 O   0  0  0  0  0  0  0  0  0  0  0  0
    2.6661   -1.4784    0.0000 O   0  0  0  0  0  0  0  0  0  0  0  0
    6.4056   -0.0712    0.0000 O   0  0  0  0  0  0  0  0  0  0  0  0
    5.5752   -1.4968    0.0000 O   0  0  0  0  0  0  0  0  0  0  0  0
    2.3641   -0.3517    0.0000 N   0  0  0  0  0  0  0  0  0  0  0  0
    3.0786    0.8857    0.0000 N   0  0  0  0  0  0  0  0  0  0  0  0
    6.7033   -1.1991    0.0000 N   0  0  0  0  0  0  0  0  0  0  0  0
    2.3641    0.4732    0.0000 C   0  0  0  0  0  0  0  0  0  0  0  0
    3.7929   -0.3517    0.0000 C   0  0  0  0  0  0  0  0  0  0  0  0
    3.7929    0.4732    0.0000 C   0  0  0  0  0  0  0  0  0  0  0  0
    1.6498    0.8857    0.0000 C   0  0  0  0  0  0  0  0  0  0  0  0
    4.5303   -0.7926    0.0000 C   0  0  0  0  0  0  0  0  0  0  0  0
    1.6498   -0.7641    0.0000 C   0  0  0  0  0  0  0  0  0  0  0  0
    4.5303    0.9143    0.0000 C   0  0  0  0  0  0  0  0  0  0  0  0
    5.2777   -0.3689    0.0000 C   0  0  0  0  0  0  0  0  0  0  0  0
    5.2777    0.4904    0.0000 C   0  0  0  0  0  0  0  0  0  0  0  0
  1 15  1  0
  2 20  1  0
  3  5  2  0
  3  6  2  0
  3  9  1  0
  3 13  1  0
  4  7  2  0
  4  8  2  0
  4 11  1  0
  4 19  1  0
  9 12  1  0
  9 17  1  0
 10 12  1  0
 10 14  1  0
 12 15  1  0
 13 14  2  0
 13 16  1  0
 14 18  1  0
 16 19  2  0
 18 20  2  0
 19 20  1  0
M  END
$$$$
