800
     RDKit          2D

 21 23  0  0  1  0  0  0  0  0999 V2000
    1.6500    0.3114    0.0000 Cl  0  0  0  0  0  0  0  0  0  0  0  0
    3.2859   -2.1079    0.0000 O   0  0  0  0  0  0  0  0  0  0  0  0
    1.7633   -1.3747    0.0000 O   0  0  0  0  0  0  0  0  0  0  0  0
    7.1733   -1.6396    0.0000 O   0  0  0  0  0  0  0  0  0  0  0  0
    4.2624    1.8673    0.0000 N   0  0  0  0  0  0  0  0  0  0  0  0
    4.5932    0.4179    0.0000 C   0  0  0  0  0  0  0  0  0  0  0  0
    3.8499    0.0600    0.0000 C   0  0  0  0  0  0  0  0  0  0  0  0
    4.7768    1.2223    0.0000 C   0  0  0  0  0  0  0  0  0  0  0  0
    3.1066    0.4179    0.0000 C   0  0  0  0  0  0  0  0  0  0  0  0
    2.9230    1.2223    0.0000 C   0  0  0  0  0  0  0  0  0  0  0  0
    3.4373    1.8673    0.0000 C   0  0  0  0  0  0  0  0  0  0  0  0
    5.2382   -0.0965    0.0000 C   0  0  0  0  0  0  0  0  0  0  0  0
    3.9273   -0.7959    0.0000 C   0  0  0  0  0  0  0  0  0  0  0  0
    2.3892   -0.0552    0.0000 C   0  0  0  0  0  0  0  0  0  0  0  0
    3.2210   -1.2855    0.0000 C   0  0  0  0  0  0  0  0  0  0  0  0
    6.0062    0.2049    0.0000 C   0  0  0  0  0  0  0  0  0  0  0  0
    5.1153   -0.9123    0.0000 C   0  0  0  0  0  0  0  0  0  0  0  0
    2.4467   -0.9126    0.0000 C   0  0  0  0  0  0  0  0  0  0  0  0
    6.6512   -0.3095    0.0000 C   0  0  0  0  0  0  0  0  0  0  0  0
    5.7603   -1.4267    0.0000 C   0  0  0  0  0  0  0  0  0  0  0  0
    6.5283   -1.1252    0.0000 C   0  0  0  0  0  0  0  0  0  0  0  0
  1 14  1  0
  2 15  1  0
  3 18  1  0
  4 21  1  0
  5  8  1  0
  5 11  1  0
  6  7  1  0
  6  8  1  0
  6 12  1  0
  7  9  2  0
  7 13  1  0
  9 10  1  0
  9 14  1  0
 10 11  1  0
 12 16  2  0
 12 17  1  0
 13 15  2  0
 14 18  2  0
 15 18  1  0
 16 19  1  0
 17 20  2  0
 19 21  2  0
 20 21  1  0
M  END
$$$$
