391
     RDKit          2D

 23 24  0  0  1  0  0  0  0  0999 V2000
    5.2224   -2.0965    0.0000 S   0  0  0  0  0  0  0  0  0  0  0  0
    3.0791    0.7910    0.0000 O   0  0  0  0  0  0  0  0  0  0  0  0
    2.3645   -0.4465    0.0000 O   0  0  0  0  0  0  0  0  0  0  0  0
    5.6350   -1.3821    0.0000 O   0  0  0  0  0  0  0  0  0  0  0  0
    4.8099   -2.8110    0.0000 O   0  0  0  0  0  0  0  0  0  0  0  0
    5.9762    1.6929    0.0000 N   0  0  0  0  0  0  0  0  0  0  0  0
    4.5080    0.7910    0.0000 N   0  0  0  0  0  0  0  0  0  0  0  0
    5.9370   -2.5090    0.0000 N   0  0  0  0  0  0  0  0  0  0  0  0
    5.2224    2.0286    0.0000 C   0  0  0  0  0  0  0  0  0  0  0  0
    5.3087    2.8490    0.0000 C   0  0  0  0  0  0  0  0  0  0  0  0
    6.1157    3.0206    0.0000 C   0  0  0  0  0  0  0  0  0  0  0  0
    6.5282    2.3061    0.0000 C   0  0  0  0  0  0  0  0  0  0  0  0
    4.5080    1.6160    0.0000 C   0  0  0  0  0  0  0  0  0  0  0  0
    6.1477    0.8860    0.0000 C   0  0  0  0  0  0  0  0  0  0  0  0
    6.9323    0.6311    0.0000 C   0  0  0  0  0  0  0  0  0  0  0  0
    3.7935    0.3785    0.0000 C   0  0  0  0  0  0  0  0  0  0  0  0
    3.7935   -0.4465    0.0000 C   0  0  0  0  0  0  0  0  0  0  0  0
    4.5080   -0.8590    0.0000 C   0  0  0  0  0  0  0  0  0  0  0  0
    3.0791   -0.8590    0.0000 C   0  0  0  0  0  0  0  0  0  0  0  0
    4.5080   -1.6840    0.0000 C   0  0  0  0  0  0  0  0  0  0  0  0
    3.0791   -1.6840    0.0000 C   0  0  0  0  0  0  0  0  0  0  0  0
    3.7935   -2.0965    0.0000 C   0  0  0  0  0  0  0  0  0  0  0  0
    1.6500   -0.8590    0.0000 C   0  0  0  0  0  0  0  0  0  0  0  0
  1  4  2  0
  1  5  2  0
  1  8  1  0
  1 20  1  0
  2 16  2  0
  3 19  1  0
  3 23  1  0
  6  9  1  0
  6 12  1  0
  6 14  1  0
  7 13  1  0
  7 16  1  0
  9 10  1  0
  9 13  1  0
 10 11  1  0
 11 12  1  0
 14 15  1  0
 16 17  1  0
 17 18  2  0
 17 19  1  0
 18 20  1  0
 19 21  2  0
 20 22  2  0
 21 22  1  0
M  END
$$$$
