948
     RDKit          2D

 36 39  0  0  1  0  0  0  0  0999 V2000
    7.6202   -0.9711    0.0000 S   0  0  0  0  0  0  0  0  0  0  0  0
    5.2617    3.5480    0.0000 S   0  0  0  0  0  0  0  0  0  0  0  0
    5.4215   -2.6390    0.0000 O   0  0  0  0  0  0  0  0  0  0  0  0
    7.3231   -3.7037    0.0000 O   0  0  0  0  0  0  0  0  0  0  0  0
    8.6820   -3.2622    0.0000 O   0  0  0  0  0  0  0  0  0  0  0  0
    4.4090   -1.6464    0.0000 O   0  0  0  0  0  0  0  0  0  0  0  0
    2.8777    0.9037    0.0000 O   0  0  0  0  0  0  0  0  0  0  0  0
    5.3520    1.7554    0.0000 O   0  0  0  0  0  0  0  0  0  0  0  0
    5.7796    2.9058    0.0000 O   0  0  0  0  0  0  0  0  0  0  0  0
    4.7439    4.1902    0.0000 O   0  0  0  0  0  0  0  0  0  0  0  0
    6.8355   -2.0510    0.0000 N   0  0  0  0  0  0  0  0  0  0  0  0
    5.4215   -0.6381    0.0000 N   0  0  0  0  0  0  0  0  0  0  0  0
    4.2572    0.5311    0.0000 N   0  0  0  0  0  0  0  0  0  0  0  0
    3.8902    1.9121    0.0000 N   0  0  0  0  0  0  0  0  0  0  0  0
    4.6195    3.0301    0.0000 N   0  0  0  0  0  0  0  0  0  0  0  0
    6.8355   -1.2260    0.0000 C   0  0  0  0  0  0  0  0  0  0  0  0
    8.1050   -1.6385    0.0000 C   0  0  0  0  0  0  0  0  0  0  0  0
    7.6202   -2.3060    0.0000 C   0  0  0  0  0  0  0  0  0  0  0  0
    6.0037   -1.2227    0.0000 C   0  0  0  0  0  0  0  0  0  0  0  0
    6.0037   -2.0545    0.0000 C   0  0  0  0  0  0  0  0  0  0  0  0
    8.7725   -1.1536    0.0000 C   0  0  0  0  0  0  0  0  0  0  0  0
    8.7725   -2.1235    0.0000 C   0  0  0  0  0  0  0  0  0  0  0  0
    7.8751   -3.0906    0.0000 C   0  0  0  0  0  0  0  0  0  0  0  0
    4.6242   -0.8500    0.0000 C   0  0  0  0  0  0  0  0  0  0  0  0
    4.0420   -0.2654    0.0000 C   0  0  0  0  0  0  0  0  0  0  0  0
    3.2447   -0.4773    0.0000 C   0  0  0  0  0  0  0  0  0  0  0  0
    3.6750    1.1157    0.0000 C   0  0  0  0  0  0  0  0  0  0  0  0
    3.3723    2.5543    0.0000 C   0  0  0  0  0  0  0  0  0  0  0  0
    3.8231    3.2452    0.0000 C   0  0  0  0  0  0  0  0  0  0  0  0
    4.6610    2.2061    0.0000 C   0  0  0  0  0  0  0  0  0  0  0  0
    3.0295   -1.2737    0.0000 C   0  0  0  0  0  0  0  0  0  0  0  0
    2.6625    0.1073    0.0000 C   0  0  0  0  0  0  0  0  0  0  0  0
    2.2322   -1.4857    0.0000 C   0  0  0  0  0  0  0  0  0  0  0  0
    1.8652   -0.1046    0.0000 C   0  0  0  0  0  0  0  0  0  0  0  0
    5.9039    4.0659    0.0000 C   0  0  0  0  0  0  0  0  0  0  0  0
    1.6500   -0.9011    0.0000 C   0  0  0  0  0  0  0  0  0  0  0  0
 16  1  1  1
  1 17  1  0
  2  9  2  0
  2 10  2  0
  2 15  1  0
  2 35  1  0
  3 20  2  0
  4 23  1  0
  5 23  2  0
  6 24  2  0
  7 27  2  0
  8 30  2  0
 11 16  1  0
 11 18  1  0
 11 20  1  0
 19 12  1  1
 12 24  1  0
 25 13  1  1
 13 27  1  0
 14 27  1  0
 14 28  1  0
 14 30  1  0
 15 29  1  0
 15 30  1  0
 16 19  1  0
 17 18  1  0
 17 21  1  0
 17 22  1  0
 18 23  1  6
 19 20  1  0
 24 25  1  0
 25 26  1  0
 26 31  2  0
 26 32  1  0
 28 29  1  0
 31 33  1  0
 32 34  2  0
 33 36  2  0
 34 36  1  0
M  END
$$$$
