276
     RDKit          2D

 28 31  0  0  0  0  0  0  0  0999 V2000
    6.7073    2.0768    0.0000 S   0  0  0  0  0  0  0  0  0  0  0  0
    3.8495    1.2518    0.0000 O   0  0  0  0  0  0  0  0  0  0  0  0
    5.8823    2.0768    0.0000 O   0  0  0  0  0  0  0  0  0  0  0  0
    7.5323    2.0768    0.0000 O   0  0  0  0  0  0  0  0  0  0  0  0
    3.8495   -0.3982    0.0000 N   0  0  0  0  0  0  0  0  0  0  0  0
    3.8495   -2.8732    0.0000 N   0  0  0  0  0  0  0  0  0  0  0  0
    6.7073    1.2518    0.0000 N   0  0  0  0  0  0  0  0  0  0  0  0
    3.8495   -1.2232    0.0000 C   0  0  0  0  0  0  0  0  0  0  0  0
    3.1350   -1.6357    0.0000 C   0  0  0  0  0  0  0  0  0  0  0  0
    4.5640   -1.6357    0.0000 C   0  0  0  0  0  0  0  0  0  0  0  0
    3.1350   -2.4607    0.0000 C   0  0  0  0  0  0  0  0  0  0  0  0
    4.5640   -2.4607    0.0000 C   0  0  0  0  0  0  0  0  0  0  0  0
    4.5640    0.0143    0.0000 C   0  0  0  0  0  0  0  0  0  0  0  0
    2.3975   -1.1946    0.0000 C   0  0  0  0  0  0  0  0  0  0  0  0
    5.3015   -1.1946    0.0000 C   0  0  0  0  0  0  0  0  0  0  0  0
    4.5640    0.8393    0.0000 C   0  0  0  0  0  0  0  0  0  0  0  0
    5.9929    0.8393    0.0000 C   0  0  0  0  0  0  0  0  0  0  0  0
    5.2784   -0.3982    0.0000 C   0  0  0  0  0  0  0  0  0  0  0  0
    2.3975   -2.9018    0.0000 C   0  0  0  0  0  0  0  0  0  0  0  0
    5.3015   -2.9018    0.0000 C   0  0  0  0  0  0  0  0  0  0  0  0
    5.2784    1.2518    0.0000 C   0  0  0  0  0  0  0  0  0  0  0  0
    5.9929    0.0143    0.0000 C   0  0  0  0  0  0  0  0  0  0  0  0
    1.6500   -1.6186    0.0000 C   0  0  0  0  0  0  0  0  0  0  0  0
    6.0490   -1.6186    0.0000 C   0  0  0  0  0  0  0  0  0  0  0  0
    1.6500   -2.4779    0.0000 C   0  0  0  0  0  0  0  0  0  0  0  0
    6.0490   -2.4779    0.0000 C   0  0  0  0  0  0  0  0  0  0  0  0
    6.7073    2.9018    0.0000 C   0  0  0  0  0  0  0  0  0  0  0  0
    3.8495    2.0768    0.0000 C   0  0  0  0  0  0  0  0  0  0  0  0
  1  3  2  0
  1  4  2  0
  1  7  1  0
  1 27  1  0
  2 16  1  0
  2 28  1  0
  5  8  1  0
  5 13  1  0
  6 11  2  0
  6 12  1  0
  7 17  1  0
  8  9  2  0
  8 10  1  0
  9 11  1  0
  9 14  1  0
 10 12  2  0
 10 15  1  0
 11 19  1  0
 12 20  1  0
 13 16  2  0
 13 18  1  0
 14 23  2  0
 15 24  2  0
 16 21  1  0
 17 21  2  0
 17 22  1  0
 18 22  2  0
 19 25  2  0
 20 26  2  0
 23 25  1  0
 24 26  1  0
M  END
$$$$
