317
     RDKit          2D

 31 34  0  0  0  0  0  0  0  0999 V2000
   10.2087   -2.9100    0.0000 Cl  0  0  0  0  0  0  0  0  0  0  0  0
   11.6471   -2.1016    0.0000 F   0  0  0  0  0  0  0  0  0  0  0  0
    1.6500   -0.3901    0.0000 O   0  0  0  0  0  0  0  0  0  0  0  0
    5.9370    0.4349    0.0000 O   0  0  0  0  0  0  0  0  0  0  0  0
    5.9370    2.0850    0.0000 O   0  0  0  0  0  0  0  0  0  0  0  0
    3.0791    0.4349    0.0000 N   0  0  0  0  0  0  0  0  0  0  0  0
    8.8084   -0.4186    0.0000 N   0  0  0  0  0  0  0  0  0  0  0  0
    8.8180    2.1136    0.0000 N   0  0  0  0  0  0  0  0  0  0  0  0
    9.5654    0.8303    0.0000 N   0  0  0  0  0  0  0  0  0  0  0  0
    3.7935    0.8475    0.0000 C   0  0  0  0  0  0  0  0  0  0  0  0
    2.3645    0.8475    0.0000 C   0  0  0  0  0  0  0  0  0  0  0  0
    3.0791   -0.3901    0.0000 C   0  0  0  0  0  0  0  0  0  0  0  0
    4.5080    0.4349    0.0000 C   0  0  0  0  0  0  0  0  0  0  0  0
    1.6500    0.4349    0.0000 C   0  0  0  0  0  0  0  0  0  0  0  0
    2.3645   -0.8026    0.0000 C   0  0  0  0  0  0  0  0  0  0  0  0
    5.2224    0.8475    0.0000 C   0  0  0  0  0  0  0  0  0  0  0  0
    6.6515    0.8475    0.0000 C   0  0  0  0  0  0  0  0  0  0  0  0
    8.0804    0.8475    0.0000 C   0  0  0  0  0  0  0  0  0  0  0  0
    7.3659    0.4349    0.0000 C   0  0  0  0  0  0  0  0  0  0  0  0
    6.6515    1.6725    0.0000 C   0  0  0  0  0  0  0  0  0  0  0  0
    8.0804    1.6725    0.0000 C   0  0  0  0  0  0  0  0  0  0  0  0
    7.3659    2.0850    0.0000 C   0  0  0  0  0  0  0  0  0  0  0  0
    8.8180    0.4063    0.0000 C   0  0  0  0  0  0  0  0  0  0  0  0
    9.5181   -0.8394    0.0000 C   0  0  0  0  0  0  0  0  0  0  0  0
    9.5654    1.6896    0.0000 C   0  0  0  0  0  0  0  0  0  0  0  0
    5.9370    2.9100    0.0000 C   0  0  0  0  0  0  0  0  0  0  0  0
    9.5085   -1.6643    0.0000 C   0  0  0  0  0  0  0  0  0  0  0  0
   10.2372   -0.4351    0.0000 C   0  0  0  0  0  0  0  0  0  0  0  0
   10.2182   -2.0851    0.0000 C   0  0  0  0  0  0  0  0  0  0  0  0
   10.9469   -0.8559    0.0000 C   0  0  0  0  0  0  0  0  0  0  0  0
   10.9374   -1.6808    0.0000 C   0  0  0  0  0  0  0  0  0  0  0  0
  1 29  1  0
  2 31  1  0
  3 14  1  0
  3 15  1  0
  4 16  1  0
  4 17  1  0
  5 20  1  0
  5 26  1  0
  6 10  1  0
  6 11  1  0
  6 12  1  0
  7 23  1  0
  7 24  1  0
  8 21  2  0
  8 25  1  0
  9 23  1  0
  9 25  2  0
 10 13  1  0
 11 14  1  0
 12 15  1  0
 13 16  1  0
 17 19  2  0
 17 20  1  0
 18 19  1  0
 18 21  1  0
 18 23  2  0
 20 22  2  0
 21 22  1  0
 24 27  2  0
 24 28  1  0
 27 29  1  0
 28 30  2  0
 29 31  2  0
 30 31  1  0
M  END
$$$$
