
     RDKit          2D

 28 31  0  0  1  0  0  0  0  0999 V2000
   15.6147   -7.6831    0.0000 C   0  0  0  0  0  0  0  0  0  0  0  0
   15.6147   -8.5081    0.0000 C   0  0  0  0  0  0  0  0  0  0  0  0
   16.3159   -8.8794    0.0000 C   0  0  0  0  0  0  0  0  0  0  0  0
   17.0172   -8.5081    0.0000 C   0  0  0  0  0  0  0  0  0  0  0  0
   17.0172   -7.6831    0.0000 C   0  0  0  0  0  0  0  0  0  0  0  0
   16.3159   -7.2706    0.0000 C   0  0  0  0  0  0  0  0  0  0  0  0
   17.7184   -8.8794    0.0000 C   0  0  0  0  0  0  0  0  0  0  0  0
   18.4609   -8.5081    0.0000 C   0  0  0  0  0  0  0  0  0  0  0  0
   18.4609   -7.6831    0.0000 C   0  0  0  0  0  0  0  0  0  0  0  0
   17.7184   -7.2706    0.0000 C   0  0  0  0  0  0  0  0  0  0  0  0
   19.1622   -7.2706    0.0000 C   0  0  0  0  0  0  0  0  0  0  0  0
   19.1622   -6.4456    0.0000 C   0  0  0  0  0  0  0  0  0  0  0  0
   18.4609   -6.0331    0.0000 C   0  0  0  0  0  0  0  0  0  0  0  0
   17.7184   -6.4456    0.0000 C   0  0  0  0  0  0  0  0  0  0  0  0
   19.9047   -7.5181    0.0000 C   0  0  0  0  0  0  0  0  0  0  0  0
   20.3997   -6.8581    0.0000 C   0  0  0  0  0  0  0  0  0  0  0  0
   19.9047   -6.1981    0.0000 C   0  0  0  0  0  0  0  0  0  0  0  0
   14.9134   -8.8794    0.0000 O   0  0  0  0  0  0  0  0  0  0  0  0
   17.0172   -6.8581    0.0000 C   0  0  0  0  0  0  0  0  0  0  0  0
   17.0172   -6.0331    0.0000 O   0  0  0  0  0  0  0  0  0  0  0  0
   19.1622   -5.6206    0.0000 C   0  0  0  0  0  0  0  0  0  0  0  0
   21.2247   -6.8581    0.0000 C   0  0  0  0  0  0  0  0  0  0  0  0
   19.9047   -5.3731    0.0000 C   0  0  0  0  0  0  0  0  0  0  0  0
   19.1902   -4.9606    0.0000 C   0  0  0  0  0  0  0  0  0  0  0  0
   20.6192   -4.9606    0.0000 O   0  0  0  0  0  0  0  0  0  0  0  0
   20.6192   -5.7856    0.0000 O   0  0  0  0  0  0  0  0  0  0  0  0
   19.1902   -4.1356    0.0000 O   0  0  0  0  0  0  0  0  0  0  0  0
   19.1754   -8.9206    0.0000 Cl  0  0  0  0  0  0  0  0  0  0  0  0
  1  2  1  0
  2  3  1  0
  3  4  2  0
  4  5  1  0
  5  6  1  0
  1  6  2  0
  4  7  1  0
  7  8  1  0
  9  8  1  6
  9 10  1  0
  5 10  1  0
  9 11  1  0
 11 12  1  0
 12 13  1  0
 13 14  1  0
 10 14  1  1
 11 15  1  1
 15 16  1  0
 16 17  1  0
 12 17  1  0
  2 18  2  0
  5 19  1  1
 14 20  1  1
 12 21  1  1
 16 22  1  6
 17 23  1  0
 23 24  1  0
 23 25  2  0
 17 26  1  6
 24 27  1  0
  8 28  1  6
M  END
$$$$
