
     RDKit          2D

 30 34  0  0  0  0  0  0  0  0999 V2000
    0.8739    0.8456    0.0000 C   0  0  0  0  0  0  0  0  0  0  0  0
    1.5752    0.4331    0.0000 N   0  0  0  0  0  0  0  0  0  0  0  0
    0.8739    1.6706    0.0000 C   0  0  0  0  0  0  0  0  0  0  0  0
    0.1315    0.4331    0.0000 N   0  0  0  0  0  0  0  0  0  0  0  0
    1.5752   -0.3918    0.0000 C   0  0  0  0  0  0  0  0  0  0  0  0
    2.2765    0.8456    0.0000 C   0  0  0  0  0  0  0  0  0  0  0  0
    1.5339    2.0832    0.0000 C   0  0  0  0  0  0  0  0  0  0  0  0
    0.1315    2.0832    0.0000 C   0  0  0  0  0  0  0  0  0  0  0  0
   -0.5698    0.8456    0.0000 C   0  0  0  0  0  0  0  0  0  0  0  0
    2.3177   -0.8043    0.0000 C   0  0  0  0  0  0  0  0  0  0  0  0
    0.8739   -0.8043    0.0000 C   0  0  0  0  0  0  0  0  0  0  0  0
    2.2765    1.6706    0.0000 C   0  0  0  0  0  0  0  0  0  0  0  0
    1.5339    2.9082    0.0000 O   0  0  0  0  0  0  0  0  0  0  0  0
   -0.5698    1.6706    0.0000 C   0  0  0  0  0  0  0  0  0  0  0  0
   -1.2710    0.3918    0.0000 N   0  0  0  0  0  0  0  0  0  0  0  0
    2.3177   -1.6706    0.0000 C   0  0  0  0  0  0  0  0  0  0  0  0
    3.0190   -0.3918    0.0000 F   0  0  0  0  0  0  0  0  0  0  0  0
    0.8739   -1.6294    0.0000 C   0  0  0  0  0  0  0  0  0  0  0  0
    2.9778    2.0832    0.0000 C   0  0  0  0  0  0  0  0  0  0  0  0
   -1.2710    2.0832    0.0000 F   0  0  0  0  0  0  0  0  0  0  0  0
    1.5752   -2.0419    0.0000 C   0  0  0  0  0  0  0  0  0  0  0  0
    3.6791    1.6706    0.0000 O   0  0  0  0  0  0  0  0  0  0  0  0
    2.9778    2.9082    0.0000 O   0  0  0  0  0  0  0  0  0  0  0  0
    1.5752   -2.9082    0.0000 F   0  0  0  0  0  0  0  0  0  0  0  0
   -2.0409    0.6888    0.0000 C   0  0  0  0  0  0  0  0  0  0  0  0
   -2.5611    0.0485    0.0000 C   0  0  0  0  0  0  0  0  0  0  0  0
   -2.1129   -0.6441    0.0000 C   0  0  0  0  0  0  0  0  0  0  0  0
   -1.2744   -0.4319    0.0000 C   0  0  0  0  0  0  0  0  0  0  0  0
   -2.9624   -0.6393    0.0000 C   0  0  0  0  0  0  0  0  0  0  0  0
   -3.6791   -1.0483    0.0000 N   0  0  0  0  0  0  0  0  0  0  0  0
  1  2  1  0
  1  3  1  0
  1  4  2  0
  2  5  1  0
  2  6  1  0
  3  7  1  0
  3  8  2  0
  4  9  1  0
  5 10  2  0
  5 11  1  0
  6 12  2  0
  7 13  2  0
  8 14  1  0
  9 15  1  0
 10 16  1  0
 10 17  1  0
 11 18  2  0
 12 19  1  0
 14 20  1  0
 16 21  2  0
 19 22  1  0
 19 23  2  0
 21 24  1  0
  7 12  1  0
  9 14  2  0
 18 21  1  0
 15 25  1  0
 26 25  1  1
 26 27  1  0
 27 28  1  1
 15 28  1  0
 26 29  1  0
 29 27  1  0
 29 30  1  6
M  END
$$$$
