298
     RDKit          2D

 24 27  0  0  0  0  0  0  0  0999 V2000
    5.1795   -0.3468    0.0000 N   0  0  0  0  0  0  0  0  0  0  0  0
    5.6921    1.2216    0.0000 N   0  0  0  0  0  0  0  0  0  0  0  0
    3.0790   -2.3367    0.0000 N   0  0  0  0  0  0  0  0  0  0  0  0
    4.3411   -2.7492    0.0000 N   0  0  0  0  0  0  0  0  0  0  0  0
    3.8596   -3.4131    0.0000 N   0  0  0  0  0  0  0  0  0  0  0  0
    5.9868   -0.1766    0.0000 C   0  0  0  0  0  0  0  0  0  0  0  0
    4.6285    0.2673    0.0000 C   0  0  0  0  0  0  0  0  0  0  0  0
    4.9232   -1.1309    0.0000 C   0  0  0  0  0  0  0  0  0  0  0  0
    6.2431    0.6075    0.0000 C   0  0  0  0  0  0  0  0  0  0  0  0
    4.8848    1.0515    0.0000 C   0  0  0  0  0  0  0  0  0  0  0  0
    4.1159   -1.3010    0.0000 C   0  0  0  0  0  0  0  0  0  0  0  0
    2.3645   -1.9242    0.0000 C   0  0  0  0  0  0  0  0  0  0  0  0
    3.8596   -2.0853    0.0000 C   0  0  0  0  0  0  0  0  0  0  0  0
    1.6500   -2.3367    0.0000 C   0  0  0  0  0  0  0  0  0  0  0  0
    1.6500   -3.1617    0.0000 C   0  0  0  0  0  0  0  0  0  0  0  0
    2.3645   -3.5742    0.0000 C   0  0  0  0  0  0  0  0  0  0  0  0
    3.0790   -3.1617    0.0000 C   0  0  0  0  0  0  0  0  0  0  0  0
    5.9484    2.0058    0.0000 C   0  0  0  0  0  0  0  0  0  0  0  0
    6.7557    2.1760    0.0000 C   0  0  0  0  0  0  0  0  0  0  0  0
    5.3974    2.6199    0.0000 C   0  0  0  0  0  0  0  0  0  0  0  0
    7.0120    2.9601    0.0000 C   0  0  0  0  0  0  0  0  0  0  0  0
    7.3066    1.5619    0.0000 C   0  0  0  0  0  0  0  0  0  0  0  0
    5.6537    3.4041    0.0000 C   0  0  0  0  0  0  0  0  0  0  0  0
    6.4610    3.5742    0.0000 C   0  0  0  0  0  0  0  0  0  0  0  0
  1  6  1  0
  1  7  1  0
  1  8  1  0
  2  9  1  0
  2 10  1  0
  2 18  1  0
  3 12  1  0
  3 13  1  0
  3 17  1  0
  4  5  1  0
  4 13  2  0
  5 17  2  0
  6  9  1  0
  7 10  1  0
  8 11  1  0
 11 13  1  0
 12 14  1  0
 14 15  1  0
 15 16  1  0
 16 17  1  0
 18 19  2  0
 18 20  1  0
 19 21  1  0
 19 22  1  0
 20 23  2  0
 21 24  2  0
 23 24  1  0
M  END
$$$$
