899
     RDKit          2D

 27 28  0  0  0  0  0  0  0  0999 V2000
    2.2820    1.2883    0.0000 O   0  0  0  0  0  0  0  0  0  0  0  0
    2.7751    2.3458    0.0000 O   0  0  0  0  0  0  0  0  0  0  0  0
    3.4282    3.1992    0.0000 O   0  0  0  0  0  0  0  0  0  0  0  0
    2.2603   -3.0849    0.0000 O   0  0  0  0  0  0  0  0  0  0  0  0
    3.6893   -3.0849    0.0000 O   0  0  0  0  0  0  0  0  0  0  0  0
    3.6893   -0.6099    0.0000 N   0  0  0  0  0  0  0  0  0  0  0  0
    4.1018    1.7546    0.0000 N   0  0  0  0  0  0  0  0  0  0  0  0
    3.6893    1.0402    0.0000 C   0  0  0  0  0  0  0  0  0  0  0  0
    2.9749    0.6277    0.0000 C   0  0  0  0  0  0  0  0  0  0  0  0
    4.4038    0.6277    0.0000 C   0  0  0  0  0  0  0  0  0  0  0  0
    2.9749   -0.1973    0.0000 C   0  0  0  0  0  0  0  0  0  0  0  0
    4.4038   -0.1973    0.0000 C   0  0  0  0  0  0  0  0  0  0  0  0
    3.0573    1.5705    0.0000 C   0  0  0  0  0  0  0  0  0  0  0  0
    3.6893   -1.4349    0.0000 C   0  0  0  0  0  0  0  0  0  0  0  0
    4.9268    1.7546    0.0000 C   0  0  0  0  0  0  0  0  0  0  0  0
    3.9585    2.5671    0.0000 C   0  0  0  0  0  0  0  0  0  0  0  0
    2.9749   -1.8474    0.0000 C   0  0  0  0  0  0  0  0  0  0  0  0
    4.5906    3.0974    0.0000 C   0  0  0  0  0  0  0  0  0  0  0  0
    5.3394    2.4691    0.0000 C   0  0  0  0  0  0  0  0  0  0  0  0
    5.3394    1.0402    0.0000 C   0  0  0  0  0  0  0  0  0  0  0  0
    2.9749   -2.6724    0.0000 C   0  0  0  0  0  0  0  0  0  0  0  0
    4.4473    3.9099    0.0000 C   0  0  0  0  0  0  0  0  0  0  0  0
    1.6500    1.8186    0.0000 C   0  0  0  0  0  0  0  0  0  0  0  0
    6.1644    2.4691    0.0000 C   0  0  0  0  0  0  0  0  0  0  0  0
    6.1644    1.0402    0.0000 C   0  0  0  0  0  0  0  0  0  0  0  0
    6.5769    1.7546    0.0000 C   0  0  0  0  0  0  0  0  0  0  0  0
    2.2603   -3.9099    0.0000 C   0  0  0  0  0  0  0  0  0  0  0  0
  1 13  1  0
  1 23  1  0
  2 13  2  0
  3 16  2  0
  4 21  1  0
  4 27  1  0
  5 21  2  0
  6 11  1  0
  6 12  1  0
  6 14  1  0
  7  8  1  0
  7 15  1  0
  7 16  1  0
  8  9  1  0
  8 10  1  0
  8 13  1  0
  9 11  1  0
 10 12  1  0
 14 17  1  0
 15 19  2  0
 15 20  1  0
 16 18  1  0
 17 21  1  0
 18 22  1  0
 19 24  1  0
 20 25  2  0
 24 26  2  0
 25 26  1  0
M  END
$$$$
