68740
     RDKit          2D

 16 16  0  0  0  0  0  0  0  0999 V2000
    2.5741   -0.9212    0.0000 P   0  0  0  0  0  0  0  0  0  0  0  0
    3.7010   -1.2232    0.0000 P   0  0  0  0  0  0  0  0  0  0  0  0
    2.8760    0.2058    0.0000 O   0  0  0  0  0  0  0  0  0  0  0  0
    4.1135   -1.9376    0.0000 O   0  0  0  0  0  0  0  0  0  0  0  0
    4.4155   -0.8107    0.0000 O   0  0  0  0  0  0  0  0  0  0  0  0
    1.8596   -1.3337    0.0000 O   0  0  0  0  0  0  0  0  0  0  0  0
    2.1615   -0.2067    0.0000 O   0  0  0  0  0  0  0  0  0  0  0  0
    3.4189   -1.9984    0.0000 O   0  0  0  0  0  0  0  0  0  0  0  0
    2.4308   -1.7337    0.0000 O   0  0  0  0  0  0  0  0  0  0  0  0
    4.0030    0.7288    0.0000 N   0  0  0  0  0  0  0  0  0  0  0  0
    4.4155    1.9984    0.0000 N   0  0  0  0  0  0  0  0  0  0  0  0
    3.2885   -0.5087    0.0000 C   0  0  0  0  0  0  0  0  0  0  0  0
    4.0030   -0.0962    0.0000 C   0  0  0  0  0  0  0  0  0  0  0  0
    3.3355    1.2138    0.0000 C   0  0  0  0  0  0  0  0  0  0  0  0
    4.6705    1.2138    0.0000 C   0  0  0  0  0  0  0  0  0  0  0  0
    3.5905    1.9984    0.0000 C   0  0  0  0  0  0  0  0  0  0  0  0
  1  6  1  0
  1  7  1  0
  1  9  2  0
  1 12  1  0
  2  4  1  0
  2  5  1  0
  2  8  2  0
  2 12  1  0
  3 12  1  0
 10 13  1  0
 10 14  1  0
 10 15  1  0
 11 15  2  0
 11 16  1  0
 12 13  1  0
 14 16  2  0
M  END
$$$$
