848
     RDKit          2D

 14 16  0  0  1  0  0  0  0  0999 V2000
    6.1753   -0.6639    0.0000 S   0  0  0  0  0  0  0  0  0  0  0  0
    5.3946    0.4125    0.0000 N   0  0  0  0  0  0  0  0  0  0  0  0
    4.6100   -0.6674    0.0000 N   0  0  0  0  0  0  0  0  0  0  0  0
    4.6100    0.6674    0.0000 C   0  0  0  0  0  0  0  0  0  0  0  0
    4.1251    0.0000    0.0000 C   0  0  0  0  0  0  0  0  0  0  0  0
    6.1753    0.6639    0.0000 C   0  0  0  0  0  0  0  0  0  0  0  0
    5.3946   -0.4125    0.0000 C   0  0  0  0  0  0  0  0  0  0  0  0
    6.6568    0.0000    0.0000 C   0  0  0  0  0  0  0  0  0  0  0  0
    3.3001    0.0000    0.0000 C   0  0  0  0  0  0  0  0  0  0  0  0
    2.8876   -0.7145    0.0000 C   0  0  0  0  0  0  0  0  0  0  0  0
    2.8876    0.7145    0.0000 C   0  0  0  0  0  0  0  0  0  0  0  0
    2.0625   -0.7145    0.0000 C   0  0  0  0  0  0  0  0  0  0  0  0
    2.0625    0.7145    0.0000 C   0  0  0  0  0  0  0  0  0  0  0  0
    1.6500    0.0000    0.0000 C   0  0  0  0  0  0  0  0  0  0  0  0
  1  7  1  0
  1  8  1  0
  2  4  1  0
  2  6  1  0
  2  7  1  0
  3  5  1  0
  3  7  2  0
  4  5  1  0
  5  9  1  6
  6  8  1  0
  9 10  2  0
  9 11  1  0
 10 12  1  0
 11 13  2  0
 12 14  2  0
 13 14  1  0
M  END
$$$$
