 
     RDKit          2D

 32 34  0  0  1  0  0  0  0  0999 V2000
   12.1679  -11.8385    0.0000 C   0  0  0  0  0  0  0  0  0  0  0  0
   12.1679  -12.6635    0.0000 C   0  0  0  0  0  0  0  0  0  0  0  0
   12.8824  -13.0760    0.0000 C   0  0  0  0  0  0  0  0  0  0  0  0
   13.5969  -12.6635    0.0000 C   0  0  0  0  0  0  0  0  0  0  0  0
   13.5969  -11.8385    0.0000 C   0  0  0  0  0  0  0  0  0  0  0  0
   12.8824  -11.4260    0.0000 O   0  0  0  0  0  0  0  0  0  0  0  0
   11.4535  -11.4260    0.0000 C   0  0  0  0  0  0  0  0  0  0  0  0
   10.7490  -11.8329    0.0000 O   0  0  0  0  0  0  0  0  0  0  0  0
   11.4535  -13.0760    0.0000 O   0  0  0  0  0  0  0  0  0  0  0  0
   12.8824  -13.9009    0.0000 N   0  0  0  0  0  0  0  0  0  0  0  0
   14.3224  -13.0825    0.0000 O   0  0  0  0  0  0  0  0  0  0  0  0
   14.3224  -11.4195    0.0000 O   0  0  0  0  0  0  0  0  0  0  0  0
   15.0142  -11.0135    0.0000 C   0  0  0  0  0  0  0  0  0  0  0  0
   15.7316  -11.4209    0.0000 C   0  0  0  0  0  0  0  0  0  0  0  0
   16.4431  -11.0034    0.0000 C   0  0  0  0  0  0  0  0  0  0  0  0
   16.4372  -10.1784    0.0000 C   0  0  0  0  0  0  0  0  0  0  0  0
   15.7199   -9.7709    0.0000 C   0  0  0  0  0  0  0  0  0  0  0  0
   15.0084  -10.1885    0.0000 C   0  0  0  0  0  0  0  0  0  0  0  0
   15.7375  -12.2507    0.0000 N   0  0  0  0  0  0  0  0  0  0  0  0
   17.1290   -9.7723    0.0000 N   0  0  0  0  0  0  0  0  0  0  0  0
   14.2954   -9.7836    0.0000 O   0  0  0  0  0  0  0  0  0  0  0  0
   15.7140   -8.9510    0.0000 O   0  0  0  0  0  0  0  0  0  0  0  0
   16.4266   -8.5328    0.0000 C   0  0  0  0  0  0  0  0  0  0  0  0
   17.1389   -8.9373    0.0000 O   0  0  0  0  0  0  0  0  0  0  0  0
   17.8504   -8.5198    0.0000 C   0  0  0  0  0  0  0  0  0  0  0  0
   17.8446   -7.6948    0.0000 C   0  0  0  0  0  0  0  0  0  0  0  0
   17.1323   -7.2903    0.0000 C   0  0  0  0  0  0  0  0  0  0  0  0
   16.4207   -7.7078    0.0000 C   0  0  0  0  0  0  0  0  0  0  0  0
   18.5834   -8.9358    0.0000 C   0  0  0  0  0  0  0  0  0  0  0  0
   18.5894   -9.7759    0.0000 N   0  0  0  0  0  0  0  0  0  0  0  0
   18.5594   -7.2752    0.0000 O   0  0  0  0  0  0  0  0  0  0  0  0
   15.7028   -7.3000    0.0000 N   0  0  0  0  0  0  0  0  0  0  0  0
  1  2  1  0
  2  3  1  0
  3  4  1  0
  4  5  1  0
  5  6  1  0
  1  6  1  0
  1  7  1  1
  7  8  1  0
  2  9  1  6
  3 10  1  1
  4 11  1  6
  5 12  1  6
 13 12  1  6
 13 14  1  0
 14 15  1  0
 15 16  1  0
 16 17  1  0
 17 18  1  0
 13 18  1  0
 14 19  1  1
 16 20  1  1
 18 21  1  1
 17 22  1  6
 23 22  1  6
 23 24  1  0
 24 25  1  0
 25 26  1  0
 26 27  1  0
 27 28  1  0
 23 28  1  0
 25 29  1  1
 29 30  1  0
 26 31  1  6
 28 32  1  6
M  END
$$$$
