
     RDKit          2D

 23 25  0  0  0  0  0  0  0  0999 V2000
   -2.8578    1.0312    0.0000 C   0  0  0  0  0  0  0  0  0  0  0  0
   -2.1434    1.4437    0.0000 C   0  0  0  0  0  0  0  0  0  0  0  0
    0.7144   -2.6812    0.0000 C   0  0  0  0  0  0  0  0  0  0  0  0
    1.4289   -2.2687    0.0000 C   0  0  0  0  0  0  0  0  0  0  0  0
    0.0000   -2.2687    0.0000 C   0  0  0  0  0  0  0  0  0  0  0  0
    0.0000    2.6812    0.0000 C   0  0  0  0  0  0  0  0  0  0  0  0
    0.7144    2.2687    0.0000 C   0  0  0  0  0  0  0  0  0  0  0  0
    1.4289   -1.4437    0.0000 C   0  0  0  0  0  0  0  0  0  0  0  0
    0.0000   -1.4437    0.0000 C   0  0  0  0  0  0  0  0  0  0  0  0
   -0.7144    2.2687    0.0000 C   0  0  0  0  0  0  0  0  0  0  0  0
    0.7144    1.4437    0.0000 C   0  0  0  0  0  0  0  0  0  0  0  0
    2.8578    1.0312    0.0000 C   0  0  0  0  0  0  0  0  0  0  0  0
    2.1434    1.4437    0.0000 C   0  0  0  0  0  0  0  0  0  0  0  0
    2.1434   -0.2062    0.0000 C   0  0  0  0  0  0  0  0  0  0  0  0
    0.7144   -1.0312    0.0000 C   0  0  0  0  0  0  0  0  0  0  0  0
   -0.7144    1.4437    0.0000 C   0  0  0  0  0  0  0  0  0  0  0  0
    0.0000    1.0312    0.0000 C   0  0  0  0  0  0  0  0  0  0  0  0
    1.4289    0.2062    0.0000 C   0  0  0  0  0  0  0  0  0  0  0  0
    0.7144   -0.2062    0.0000 C   0  0  0  0  0  0  0  0  0  0  0  0
    2.8578    0.2062    0.0000 N   0  0  0  0  0  0  0  0  0  0  0  0
   -1.4289    1.0312    0.0000 O   0  0  0  0  0  0  0  0  0  0  0  0
    1.4289    1.0312    0.0000 O   0  0  0  0  0  0  0  0  0  0  0  0
    0.0000    0.2062    0.0000 O   0  0  0  0  0  0  0  0  0  0  0  0
  2  1  1  0
  4  3  2  0
  5  3  1  0
  7  6  2  0
  8  4  1  0
  9  5  2  0
 10  6  1  0
 11  7  1  0
 13 12  1  0
 15  8  2  0
 15  9  1  0
 16 10  2  0
 17 11  2  0
 17 16  1  0
 18 14  1  6
 19 15  1  0
 18 19  1  0
 20 12  1  0
 20 14  1  0
 21  2  1  0
 21 16  1  0
 22 13  1  0
 22 18  1  0
 23 17  1  0
 19 23  1  1
M  END
$$$$
