
     RDKit          2D

 85 85  0  0  0  0  0  0  0  0999 V2000
    0.6944    1.3360    0.0000 C   0  0  0  0  0  0  0  0  0  0  0  0
   -0.0196    0.9229    0.0000 N   0  0  0  0  0  0  0  0  0  0  0  0
    1.4085    0.9229    0.0000 C   0  0  0  0  0  0  0  0  0  0  0  0
    0.6944    2.1583    0.0000 C   0  0  0  0  0  0  0  0  0  0  0  0
   -0.7337    1.3360    0.0000 C   0  0  0  0  0  0  0  0  0  0  0  0
   -0.0196    0.1005    0.0000 C   0  0  0  0  0  0  0  0  0  0  0  0
    2.1224    1.3360    0.0000 N   0  0  0  0  0  0  0  0  0  0  0  0
    1.4085    0.1005    0.0000 O   0  0  0  0  0  0  0  0  0  0  0  0
    1.4085    2.5716    0.0000 C   0  0  0  0  0  0  0  0  0  0  0  0
   -0.0196    2.5716    0.0000 O   0  0  0  0  0  0  0  0  0  0  0  0
   -1.4477    0.9229    0.0000 C   0  0  0  0  0  0  0  0  0  0  0  0
   -0.7337    2.1583    0.0000 O   0  0  0  0  0  0  0  0  0  0  0  0
    2.8365    0.9229    0.0000 C   0  0  0  0  0  0  0  0  0  0  0  0
    1.4085    3.3979    0.0000 C   0  0  0  0  0  0  0  0  0  0  0  0
    2.1224    2.1583    0.0000 C   0  0  0  0  0  0  0  0  0  0  0  0
   -2.1616    1.3360    0.0000 N   0  0  0  0  0  0  0  0  0  0  0  0
    3.5506    1.3360    0.0000 C   0  0  0  0  0  0  0  0  0  0  0  0
    2.8365    0.1005    0.0000 C   0  0  0  0  0  0  0  0  0  0  0  0
    0.6944    3.8111    0.0000 C   0  0  0  0  0  0  0  0  0  0  0  0
   -2.8757    0.9229    0.0000 C   0  0  0  0  0  0  0  0  0  0  0  0
   -2.1616    2.1583    0.0000 C   0  0  0  0  0  0  0  0  0  0  0  0
    4.2647    0.9229    0.0000 N   0  0  0  0  0  0  0  0  0  0  0  0
    3.5506    2.1583    0.0000 O   0  0  0  0  0  0  0  0  0  0  0  0
    2.1224   -0.3126    0.0000 C   0  0  0  0  0  0  0  0  0  0  0  0
    0.6944    4.6335    0.0000 C   0  0  0  0  0  0  0  0  0  0  0  0
   -3.5898    1.3360    0.0000 C   0  0  0  0  0  0  0  0  0  0  0  0
   -2.8757    0.1005    0.0000 O   0  0  0  0  0  0  0  0  0  0  0  0
    4.2647    0.1005    0.0000 C   0  0  0  0  0  0  0  0  0  0  0  0
    4.9787    1.3360    0.0000 C   0  0  0  0  0  0  0  0  0  0  0  0
   -0.0196    5.0467    0.0000 C   0  0  0  0  0  0  0  0  0  0  0  0
   -4.3039    0.9229    0.0000 N   0  0  0  0  0  0  0  0  0  0  0  0
   -3.5898    2.1583    0.0000 C   0  0  0  0  0  0  0  0  0  0  0  0
    4.9787   -0.3126    0.0000 C   0  0  0  0  0  0  0  0  0  0  0  0
   -4.2843   -1.6970    0.0000 C   0  0  0  0  0  0  0  0  0  0  0  0
   -5.1303    0.9229    0.0000 C   0  0  0  0  0  0  0  0  0  0  0  0
   -4.3039    2.5716    0.0000 C   0  0  0  0  0  0  0  0  0  0  0  0
    5.2692   -1.5421    0.0000 N   0  0  0  0  0  0  0  0  0  0  0  0
    5.6928    0.1005    0.0000 O   0  0  0  0  0  0  0  0  0  0  0  0
   -4.9983   -2.1102    0.0000 C   0  0  0  0  0  0  0  0  0  0  0  0
   -3.4939   -1.4764    0.0000 O   0  0  0  0  0  0  0  0  0  0  0  0
   -4.3039    3.3979    0.0000 C   0  0  0  0  0  0  0  0  0  0  0  0
   -5.0178    2.1583    0.0000 C   0  0  0  0  0  0  0  0  0  0  0  0
    4.9983   -2.9326    0.0000 C   0  0  0  0  0  0  0  0  0  0  0  0
    5.9854   -1.4956    0.0000 C   0  0  0  0  0  0  0  0  0  0  0  0
   -4.9983   -2.9326    0.0000 N   0  0  0  0  0  0  0  0  0  0  0  0
   -5.7123   -1.6970    0.0000 C   0  0  0  0  0  0  0  0  0  0  0  0
    4.2843   -3.3459    0.0000 C   0  0  0  0  0  0  0  0  0  0  0  0
    5.7124   -3.3459    0.0000 C   0  0  0  0  0  0  0  0  0  0  0  0
   -4.2843   -3.3459    0.0000 C   0  0  0  0  0  0  0  0  0  0  0  0
   -5.7123   -3.3459    0.0000 C   0  0  0  0  0  0  0  0  0  0  0  0
   -6.4264   -2.1102    0.0000 C   0  0  0  0  0  0  0  0  0  0  0  0
    3.5702   -2.9326    0.0000 N   0  0  0  0  0  0  0  0  0  0  0  0
    4.2843   -4.1682    0.0000 O   0  0  0  0  0  0  0  0  0  0  0  0
    6.4263   -2.9326    0.0000 C   0  0  0  0  0  0  0  0  0  0  0  0
   -3.5701   -2.9326    0.0000 C   0  0  0  0  0  0  0  0  0  0  0  0
   -4.2843   -4.1682    0.0000 O   0  0  0  0  0  0  0  0  0  0  0  0
   -7.1404   -1.6970    0.0000 C   0  0  0  0  0  0  0  0  0  0  0  0
   -6.8557   -2.8684    0.0000 C   0  0  0  0  0  0  0  0  0  0  0  0
    2.8561   -3.3459    0.0000 C   0  0  0  0  0  0  0  0  0  0  0  0
    7.1405   -3.3459    0.0000 C   0  0  0  0  0  0  0  0  0  0  0  0
    6.4263   -2.1102    0.0000 C   0  0  0  0  0  0  0  0  0  0  0  0
   -2.8561   -3.3459    0.0000 N   0  0  0  0  0  0  0  0  0  0  0  0
   -3.5701   -2.1102    0.0000 C   0  0  0  0  0  0  0  0  0  0  0  0
    2.1421   -2.9326    0.0000 C   0  0  0  0  0  0  0  0  0  0  0  0
    2.8722   -4.4169    0.0000 C   0  0  0  0  0  0  0  0  0  0  0  0
   -2.1420   -2.9326    0.0000 C   0  0  0  0  0  0  0  0  0  0  0  0
    1.4281   -3.3459    0.0000 N   0  0  0  0  0  0  0  0  0  0  0  0
    2.1421   -2.1102    0.0000 O   0  0  0  0  0  0  0  0  0  0  0  0
    2.1100   -5.0466    0.0000 C   0  0  0  0  0  0  0  0  0  0  0  0
    3.5982   -4.9825    0.0000 C   0  0  0  0  0  0  0  0  0  0  0  0
   -1.4282   -3.3459    0.0000 C   0  0  0  0  0  0  0  0  0  0  0  0
   -2.1420   -2.1102    0.0000 O   0  0  0  0  0  0  0  0  0  0  0  0
    0.7140   -2.9326    0.0000 C   0  0  0  0  0  0  0  0  0  0  0  0
    1.4281   -4.1682    0.0000 C   0  0  0  0  0  0  0  0  0  0  0  0
   -0.7141   -2.9326    0.0000 N   0  0  0  0  0  0  0  0  0  0  0  0
   -1.4282   -4.1682    0.0000 C   0  0  0  0  0  0  0  0  0  0  0  0
    0.0000   -3.3459    0.0000 C   0  0  0  0  0  0  0  0  0  0  0  0
    0.0000   -4.1682    0.0000 O   0  0  0  0  0  0  0  0  0  0  0  0
   -1.4479    0.0979    0.0000 C   0  0  0  0  0  0  0  0  0  0  0  0
   -2.1622   -0.3145    0.0000 C   0  0  0  0  0  0  0  0  0  0  0  0
   -0.7334   -0.3145    0.0000 C   0  0  0  0  0  0  0  0  0  0  0  0
    0.7140   -2.1076    0.0000 C   0  0  0  0  0  0  0  0  0  0  0  0
   -0.0004   -1.6951    0.0000 C   0  0  0  0  0  0  0  0  0  0  0  0
   -0.0004   -0.8701    0.0000 C   0  0  0  0  0  0  0  0  0  0  0  0
   -0.7148   -2.1076    0.0000 C   0  0  0  0  0  0  0  0  0  0  0  0
  1  2  1  0
  1  3  1  1
  1  4  1  0
  2  5  1  0
  2  6  1  0
  3  7  1  0
  3  8  2  0
  4  9  1  0
  4 10  1  6
  5 11  1  0
  5 12  2  0
  7 13  1  0
  9 14  1  0
  9 15  1  1
 11 16  1  0
 13 17  1  0
 13 18  1  6
 14 19  1  0
 16 20  1  0
 16 21  1  0
 17 22  1  0
 17 23  2  0
 18 24  1  0
 19 25  2  0
 20 26  1  0
 20 27  2  0
 22 28  1  0
 22 29  1  0
 25 30  1  0
 26 31  1  0
 26 32  1  1
 28 33  1  0
 31 35  1  0
 32 36  1  0
 33 38  2  0
 34 39  1  0
 34 40  2  0
 36 41  1  0
 36 42  1  0
 37 43  1  0
 37 44  1  0
 39 45  1  0
 39 46  1  1
 43 47  1  0
 43 48  1  1
 45 49  1  0
 45 50  1  0
 46 51  1  0
 47 52  1  0
 47 53  2  0
 48 54  1  0
 49 55  1  0
 49 56  2  0
 51 57  1  0
 51 58  1  0
 52 59  1  0
 54 60  1  0
 54 61  1  0
 55 62  1  0
 55 63  1  1
 59 64  1  0
 59 65  1  1
 62 66  1  0
 64 67  1  0
 64 68  2  0
 65 69  1  0
 65 70  1  0
 66 71  1  0
 66 72  2  0
 67 73  1  0
 67 74  1  0
 71 75  1  0
 71 76  1  1
 73 77  1  0
 77 78  2  0
 75 77  1  0
 11 79  1  6
 79 80  1  0
 79 81  1  0
 73 82  1  6
 82 83  1  0
 83 84  1  0
 83 85  1  0
 34 31  1  0
 33 37  1  0
M  END
$$$$
