
     RDKit          2D

 21 22  0  0  1  0  0  0  0  0999 V2000
   -4.1801    6.4152    0.0000 C   0  0  0  0  0  0  0  0  0  0  0  0
   -3.8781    5.2882    0.0000 C   0  0  0  0  0  0  0  0  0  0  0  0
   -3.0531    6.7172    0.0000 C   0  0  0  0  0  0  0  0  0  0  0  0
    0.7429    1.5082    0.0000 C   0  0  0  0  0  0  0  0  0  0  0  0
    0.3014    2.8672    0.0000 C   0  0  0  0  0  0  0  0  0  0  0  0
    1.5275    1.7631    0.0000 C   0  0  0  0  0  0  0  0  0  0  0  0
    1.0860    3.1221    0.0000 C   0  0  0  0  0  0  0  0  0  0  0  0
   -2.7512    4.7652    0.0000 C   0  0  0  0  0  0  0  0  0  0  0  0
   -2.0367    3.5277    0.0000 C   0  0  0  0  0  0  0  0  0  0  0  0
   -2.0367    4.3527    0.0000 C   0  0  0  0  0  0  0  0  0  0  0  0
   -0.6548    1.8053    0.0000 C   0  0  0  0  0  0  0  0  0  0  0  0
   -1.3222    2.2902    0.0000 C   0  0  0  0  0  0  0  0  0  0  0  0
   -3.4656    6.0027    0.0000 C   0  0  0  0  0  0  0  0  0  0  0  0
   -2.7512    5.5902    0.0000 N   0  0  0  0  0  0  0  0  0  0  0  0
   -0.9097    1.0206    0.0000 N   0  0  0  0  0  0  0  0  0  0  0  0
   -1.9897    1.8053    0.0000 N   0  0  0  0  0  0  0  0  0  0  0  0
    0.1298    2.0602    0.0000 N   0  0  0  0  0  0  0  0  0  0  0  0
   -1.3222    4.7652    0.0000 O   0  0  0  0  0  0  0  0  0  0  0  0
    1.6991    2.5701    0.0000 O   0  0  0  0  0  0  0  0  0  0  0  0
   -1.3222    3.1152    0.0000 O   0  0  0  0  0  0  0  0  0  0  0  0
   -1.7347    1.0206    0.0000 S   0  0  0  0  0  0  0  0  0  0  0  0
  6  4  1  0
  7  5  1  0
 10  8  1  0
 10  9  1  0
 12 11  1  0
 13  1  1  0
 13  2  1  0
 13  3  1  0
 14  8  1  0
 14 13  1  0
 15 11  2  0
 16 12  2  0
 17  4  1  0
 17  5  1  0
 17 11  1  0
 10 18  1  6
 19  6  1  0
 19  7  1  0
 20  9  1  0
 20 12  1  0
 21 15  1  0
 21 16  1  0
M  END
$$$$
