467
     RDKit          2D

 23 25  0  0  0  0  0  0  0  0999 V2000
    7.1488    1.0625    0.0000 F   0  0  0  0  0  0  0  0  0  0  0  0
    4.2364    1.8676    0.0000 O   0  0  0  0  0  0  0  0  0  0  0  0
    2.0930    0.6301    0.0000 O   0  0  0  0  0  0  0  0  0  0  0  0
    2.8075    1.8676    0.0000 O   0  0  0  0  0  0  0  0  0  0  0  0
    7.1488   -0.6273    0.0000 N   0  0  0  0  0  0  0  0  0  0  0  0
    8.5746   -1.4579    0.0000 N   0  0  0  0  0  0  0  0  0  0  0  0
    4.2364   -0.6075    0.0000 N   0  0  0  0  0  0  0  0  0  0  0  0
    5.6884   -0.6360    0.0000 N   0  0  0  0  0  0  0  0  0  0  0  0
    7.1456   -1.4523    0.0000 C   0  0  0  0  0  0  0  0  0  0  0  0
    7.8649   -0.2176    0.0000 C   0  0  0  0  0  0  0  0  0  0  0  0
    7.8585   -1.8676    0.0000 C   0  0  0  0  0  0  0  0  0  0  0  0
    8.5778   -0.6329    0.0000 C   0  0  0  0  0  0  0  0  0  0  0  0
    6.4359   -0.2121    0.0000 C   0  0  0  0  0  0  0  0  0  0  0  0
    4.9509   -0.1949    0.0000 C   0  0  0  0  0  0  0  0  0  0  0  0
    4.9509    0.6301    0.0000 C   0  0  0  0  0  0  0  0  0  0  0  0
    6.4359    0.6473    0.0000 C   0  0  0  0  0  0  0  0  0  0  0  0
    5.6884    1.0712    0.0000 C   0  0  0  0  0  0  0  0  0  0  0  0
    4.2364   -1.4325    0.0000 C   0  0  0  0  0  0  0  0  0  0  0  0
    4.2364    1.0426    0.0000 C   0  0  0  0  0  0  0  0  0  0  0  0
    3.5220   -0.1949    0.0000 C   0  0  0  0  0  0  0  0  0  0  0  0
    3.5220    0.6301    0.0000 C   0  0  0  0  0  0  0  0  0  0  0  0
    3.5220   -1.8450    0.0000 C   0  0  0  0  0  0  0  0  0  0  0  0
    2.8075    1.0426    0.0000 C   0  0  0  0  0  0  0  0  0  0  0  0
  1 16  1  0
  2 19  2  0
  3 23  1  0
  4 23  2  0
  5  9  1  0
  5 10  1  0
  5 13  1  0
  6 11  1  0
  6 12  1  0
  7 14  1  0
  7 18  1  0
  7 20  1  0
  8 13  1  0
  8 14  2  0
  9 11  1  0
 10 12  1  0
 13 16  2  0
 14 15  1  0
 15 17  2  0
 15 19  1  0
 16 17  1  0
 18 22  1  0
 19 21  1  0
 20 21  2  0
 21 23  1  0
M  END
$$$$
