
     RDKit          2D

 20 21  0  0  0  0  0  0  0  0999 V2000
   -0.7145    0.4125    0.0000 O   0  0  0  0  0  0  0  0  0  0  0  0
    0.0000    0.0000    0.0000 C   0  0  0  0  0  0  0  0  0  0  0  0
    0.0000   -0.8250    0.0000 O   0  0  0  0  0  0  0  0  0  0  0  0
   -2.0738   -1.3395    0.0000 C   0  0  0  0  0  0  0  0  0  0  0  0
   -1.4289   -0.8250    0.0000 C   0  0  0  0  0  0  0  0  0  0  0  0
   -2.8783    0.3307    0.0000 C   0  0  0  0  0  0  0  0  0  0  0  0
   -2.0740    0.5143    0.0000 C   0  0  0  0  0  0  0  0  0  0  0  0
   -1.4289    0.0000    0.0000 C   0  0  0  0  0  0  0  0  0  0  0  0
   -1.9509   -0.1194    0.0000 N   0  0  0  0  0  0  0  0  0  0  0  0
   -3.2908   -0.3838    0.0000 C   0  0  0  0  0  0  0  0  0  0  0  0
   -2.8707   -1.1260    0.0000 C   0  0  0  0  0  0  0  0  0  0  0  0
   -1.7374    0.6774    0.0000 C   0  0  0  0  0  0  0  0  0  0  0  0
   -1.1540   -0.3330    0.0000 C   0  0  0  0  0  0  0  0  0  0  0  0
    0.7145    0.4125    0.0000 C   0  0  0  0  0  0  0  0  0  0  0  0
    0.7145    1.2375    0.0000 C   0  0  0  0  0  0  0  0  0  0  0  0
    1.4289    0.0000    0.0000 C   0  0  0  0  0  0  0  0  0  0  0  0
    1.4289    1.6500    0.0000 C   0  0  0  0  0  0  0  0  0  0  0  0
    1.4289    2.4750    0.0000 C   0  0  0  0  0  0  0  0  0  0  0  0
    2.1434    0.4125    0.0000 C   0  0  0  0  0  0  0  0  0  0  0  0
    2.8579    0.0000    0.0000 C   0  0  0  0  0  0  0  0  0  0  0  0
  8  1  1  0
  2  1  1  0
  2  3  2  0
  5  4  1  0
  4  9  1  0
  8  5  1  0
  7  6  1  0
  6  9  1  0
  7  8  1  0
  6 10  1  0
  4 11  1  0
 11 10  1  0
  9 12  1  0
  9 13  1  0
  2 14  1  0
 14 15  1  0
 14 16  1  0
 15 17  1  0
 17 18  1  0
 16 19  1  0
 19 20  1  0
M  CHG  1   9   1
M  END
$$$$
