706
     RDKit          2D

 28 29  0  0  1  0  0  0  0  0999 V2000
    3.7935    3.7910    0.0000 S   0  0  0  0  0  0  0  0  0  0  0  0
    6.6515   -1.9842    0.0000 O   0  0  0  0  0  0  0  0  0  0  0  0
    2.3645    2.9659    0.0000 O   0  0  0  0  0  0  0  0  0  0  0  0
    2.9685    3.7910    0.0000 O   0  0  0  0  0  0  0  0  0  0  0  0
    4.6185    3.7910    0.0000 O   0  0  0  0  0  0  0  0  0  0  0  0
    6.6515   -3.6342    0.0000 O   0  0  0  0  0  0  0  0  0  0  0  0
    5.9370    0.0784    0.0000 N   0  0  0  0  0  0  0  0  0  0  0  0
    3.7935    4.6160    0.0000 N   0  0  0  0  0  0  0  0  0  0  0  0
    5.2224    0.4909    0.0000 C   0  0  0  0  0  0  0  0  0  0  0  0
    5.2224    1.3159    0.0000 C   0  0  0  0  0  0  0  0  0  0  0  0
    4.5080    1.7284    0.0000 C   0  0  0  0  0  0  0  0  0  0  0  0
    4.5080    0.0784    0.0000 C   0  0  0  0  0  0  0  0  0  0  0  0
    5.9370   -0.7466    0.0000 C   0  0  0  0  0  0  0  0  0  0  0  0
    4.5080    2.5534    0.0000 C   0  0  0  0  0  0  0  0  0  0  0  0
    3.7935    2.9659    0.0000 C   0  0  0  0  0  0  0  0  0  0  0  0
    3.7935    1.3159    0.0000 C   0  0  0  0  0  0  0  0  0  0  0  0
    6.6515   -1.1592    0.0000 C   0  0  0  0  0  0  0  0  0  0  0  0
    3.0791    2.5534    0.0000 C   0  0  0  0  0  0  0  0  0  0  0  0
    3.0791    1.7284    0.0000 C   0  0  0  0  0  0  0  0  0  0  0  0
    7.3659   -2.3967    0.0000 C   0  0  0  0  0  0  0  0  0  0  0  0
    7.3659   -3.2217    0.0000 C   0  0  0  0  0  0  0  0  0  0  0  0
    8.0804   -1.9842    0.0000 C   0  0  0  0  0  0  0  0  0  0  0  0
    1.6500    2.5534    0.0000 C   0  0  0  0  0  0  0  0  0  0  0  0
    8.0804   -3.6342    0.0000 C   0  0  0  0  0  0  0  0  0  0  0  0
    8.7949   -2.3967    0.0000 C   0  0  0  0  0  0  0  0  0  0  0  0
    8.7949   -3.2217    0.0000 C   0  0  0  0  0  0  0  0  0  0  0  0
    6.6515   -4.4592    0.0000 C   0  0  0  0  0  0  0  0  0  0  0  0
    5.9370   -4.8717    0.0000 C   0  0  0  0  0  0  0  0  0  0  0  0
  1  4  2  0
  1  5  2  0
  1  8  1  0
  1 15  1  0
  2 17  1  0
  2 20  1  0
  3 18  1  0
  3 23  1  0
  6 21  1  0
  6 27  1  0
  9  7  1  0
  7 13  1  0
  9 10  1  0
  9 12  1  6
 10 11  1  0
 11 14  2  0
 11 16  1  0
 13 17  1  0
 14 15  1  0
 15 18  2  0
 16 19  2  0
 18 19  1  0
 20 21  2  0
 20 22  1  0
 21 24  1  0
 22 25  2  0
 24 26  2  0
 25 26  1  0
 27 28  1  0
M  END
$$$$
