
     RDKit          2D

 15 17  0  0  0  0  0  0  0  0999 V2000
    1.7869   -0.8250    0.0000 C   0  0  0  0  0  0  0  0  0  0  0  0
    1.7869    0.8250    0.0000 C   0  0  0  0  0  0  0  0  0  0  0  0
    2.5013    0.4125    0.0000 C   0  0  0  0  0  0  0  0  0  0  0  0
    2.5013   -0.4125    0.0000 C   0  0  0  0  0  0  0  0  0  0  0  0
    1.0724    0.4125    0.0000 C   0  0  0  0  0  0  0  0  0  0  0  0
    1.0724   -0.4125    0.0000 C   0  0  0  0  0  0  0  0  0  0  0  0
    0.2878   -0.6674    0.0000 N   0  0  0  0  0  0  0  0  0  0  0  0
    0.2878    0.6674    0.0000 N   0  0  0  0  0  0  0  0  0  0  0  0
   -1.7870    0.4124    0.0000 C   0  0  0  0  0  0  0  0  0  0  0  0
   -1.7870   -0.4125    0.0000 C   0  0  0  0  0  0  0  0  0  0  0  0
   -0.3573    0.0000    0.0000 Pt  0  0  0  0  0  4  0  0  0  0  0  0
   -1.0024    0.6673    0.0000 O   0  0  0  0  0  0  0  0  0  0  0  0
   -1.0024   -0.6674    0.0000 O   0  0  0  0  0  0  0  0  0  0  0  0
   -2.5014   -0.8250    0.0000 O   0  0  0  0  0  0  0  0  0  0  0  0
   -2.5014    0.8249    0.0000 O   0  0  0  0  0  0  0  0  0  0  0  0
  6  1  1  1
  1  4  1  0
  5  2  1  6
  2  3  1  0
  3  4  1  0
  5  8  1  0
  5  6  1  0
  6  7  1  0
  7 11  1  0
 11  8  1  0
 14 10  2  0
  9 15  2  0
  9 12  1  0
  9 10  1  0
 10 13  1  0
 13 11  1  0
 11 12  1  0
M  END
$$$$
