705
     RDKit          2D

 32 35  0  0  0  0  0  0  0  0999 V2000
    2.3645    1.5132    0.0000 S   0  0  0  0  0  0  0  0  0  0  0  0
    7.7222    2.6401    0.0000 O   0  0  0  0  0  0  0  0  0  0  0  0
    2.7770    2.2276    0.0000 O   0  0  0  0  0  0  0  0  0  0  0  0
    1.9520    0.7986    0.0000 O   0  0  0  0  0  0  0  0  0  0  0  0
    8.5472   -0.2178    0.0000 N   0  0  0  0  0  0  0  0  0  0  0  0
    7.7222    1.2111    0.0000 N   0  0  0  0  0  0  0  0  0  0  0  0
    6.0031    2.5896    0.0000 N   0  0  0  0  0  0  0  0  0  0  0  0
    7.7222   -1.6468    0.0000 N   0  0  0  0  0  0  0  0  0  0  0  0
    9.7847   -0.9323    0.0000 N   0  0  0  0  0  0  0  0  0  0  0  0
    3.0791    1.1007    0.0000 N   0  0  0  0  0  0  0  0  0  0  0  0
    8.9597    0.4967    0.0000 C   0  0  0  0  0  0  0  0  0  0  0  0
    7.7222   -0.2178    0.0000 C   0  0  0  0  0  0  0  0  0  0  0  0
    8.5472    1.2111    0.0000 C   0  0  0  0  0  0  0  0  0  0  0  0
    7.3097    0.4967    0.0000 C   0  0  0  0  0  0  0  0  0  0  0  0
    8.9597   -0.9323    0.0000 C   0  0  0  0  0  0  0  0  0  0  0  0
    7.3097    1.9257    0.0000 C   0  0  0  0  0  0  0  0  0  0  0  0
    6.4846    1.9257    0.0000 C   0  0  0  0  0  0  0  0  0  0  0  0
    8.5472   -1.6468    0.0000 C   0  0  0  0  0  0  0  0  0  0  0  0
    6.0031    1.2617    0.0000 C   0  0  0  0  0  0  0  0  0  0  0  0
    5.2224    1.5132    0.0000 C   0  0  0  0  0  0  0  0  0  0  0  0
    5.2224    2.3382    0.0000 C   0  0  0  0  0  0  0  0  0  0  0  0
    7.3097   -2.3613    0.0000 C   0  0  0  0  0  0  0  0  0  0  0  0
    8.9597   -2.3613    0.0000 C   0  0  0  0  0  0  0  0  0  0  0  0
    4.5080    1.1007    0.0000 C   0  0  0  0  0  0  0  0  0  0  0  0
    4.5080    2.7507    0.0000 C   0  0  0  0  0  0  0  0  0  0  0  0
   10.1972   -1.6468    0.0000 C   0  0  0  0  0  0  0  0  0  0  0  0
    3.7935    1.5132    0.0000 C   0  0  0  0  0  0  0  0  0  0  0  0
    9.7847   -2.3613    0.0000 C   0  0  0  0  0  0  0  0  0  0  0  0
    3.7935    2.3382    0.0000 C   0  0  0  0  0  0  0  0  0  0  0  0
    6.4846   -2.3613    0.0000 C   0  0  0  0  0  0  0  0  0  0  0  0
    7.7222   -3.0758    0.0000 C   0  0  0  0  0  0  0  0  0  0  0  0
    1.6500    1.9257    0.0000 C   0  0  0  0  0  0  0  0  0  0  0  0
  1  3  2  0
  1  4  2  0
  1 10  1  0
  1 32  1  0
  2 16  2  0
  5 11  1  0
  5 12  1  0
  5 15  1  0
  6 13  1  0
  6 14  1  0
  6 16  1  0
  7 17  1  0
  7 21  1  0
  8 18  1  0
  8 22  1  0
  9 15  2  0
  9 26  1  0
 10 27  1  0
 11 13  1  0
 12 14  1  0
 15 18  1  0
 16 17  1  0
 17 19  2  0
 18 23  2  0
 19 20  1  0
 20 21  2  0
 20 24  1  0
 21 25  1  0
 22 30  1  0
 22 31  1  0
 23 28  1  0
 24 27  2  0
 25 29  2  0
 26 28  2  0
 27 29  1  0
M  END
$$$$
