219
     RDKit          2D

 25 26  0  0  1  0  0  0  0  0999 V2000
    1.9058    0.0957    0.0000 O   0  0  0  0  0  0  0  0  0  0  0  0
    3.9683   -0.6188    0.0000 O   0  0  0  0  0  0  0  0  0  0  0  0
    3.9683    0.8103    0.0000 O   0  0  0  0  0  0  0  0  0  0  0  0
    6.0309   -1.3332    0.0000 N   0  0  0  0  0  0  0  0  0  0  0  0
    2.7308    0.9207    0.0000 C   0  0  0  0  0  0  0  0  0  0  0  0
    2.0163    1.3332    0.0000 C   0  0  0  0  0  0  0  0  0  0  0  0
    3.4453    1.3332    0.0000 C   0  0  0  0  0  0  0  0  0  0  0  0
    2.7308    0.0957    0.0000 C   0  0  0  0  0  0  0  0  0  0  0  0
    2.0163    2.1582    0.0000 C   0  0  0  0  0  0  0  0  0  0  0  0
    3.4453    2.1582    0.0000 C   0  0  0  0  0  0  0  0  0  0  0  0
    2.7308    2.5708    0.0000 C   0  0  0  0  0  0  0  0  0  0  0  0
    2.7308   -0.7293    0.0000 C   0  0  0  0  0  0  0  0  0  0  0  0
    5.2059   -1.3332    0.0000 C   0  0  0  0  0  0  0  0  0  0  0  0
    3.5558    0.0957    0.0000 C   0  0  0  0  0  0  0  0  0  0  0  0
    6.0309   -2.1582    0.0000 C   0  0  0  0  0  0  0  0  0  0  0  0
    6.8559   -1.3332    0.0000 C   0  0  0  0  0  0  0  0  0  0  0  0
    4.7934   -0.6188    0.0000 C   0  0  0  0  0  0  0  0  0  0  0  0
    6.0309   -0.5082    0.0000 C   0  0  0  0  0  0  0  0  0  0  0  0
    3.4453   -1.1418    0.0000 C   0  0  0  0  0  0  0  0  0  0  0  0
    2.0163   -1.1418    0.0000 C   0  0  0  0  0  0  0  0  0  0  0  0
    5.3164   -2.5708    0.0000 C   0  0  0  0  0  0  0  0  0  0  0  0
    7.2684   -2.0478    0.0000 C   0  0  0  0  0  0  0  0  0  0  0  0
    3.4453   -1.9668    0.0000 C   0  0  0  0  0  0  0  0  0  0  0  0
    2.0163   -1.9668    0.0000 C   0  0  0  0  0  0  0  0  0  0  0  0
    2.7308   -2.3794    0.0000 C   0  0  0  0  0  0  0  0  0  0  0  0
  1  8  1  0
  2 14  1  0
  2 17  1  0
  3 14  2  0
  4 13  1  0
  4 15  1  0
  4 16  1  0
  4 18  1  0
  5  6  1  0
  5  7  1  0
  5  8  1  0
  6  9  1  0
  7 10  1  0
  8 12  1  0
  8 14  1  0
  9 11  1  0
 10 11  1  0
 12 19  2  0
 12 20  1  0
 13 17  1  0
 15 21  1  0
 16 22  1  0
 19 23  1  0
 20 24  2  0
 23 25  2  0
 24 25  1  0
M  CHG  1   4   1
M  END
$$$$
