
     RDKit          2D

 91 95  0  0  0  0  0  0  0  0999 V2000
    0.0195   -0.7930    0.0000 C   0  0  0  0  0  0  0  0  0  0  0  0
    0.8394   -0.7978    0.0000 C   0  0  0  0  0  0  0  0  0  0  0  0
    2.9916    0.3587    0.0000 C   0  0  0  0  0  0  0  0  0  0  0  0
   -3.8261   -0.4367    0.0000 C   0  0  0  0  0  0  0  0  0  0  0  0
    3.4162    1.0614    0.0000 C   0  0  0  0  0  0  0  0  0  0  0  0
   -3.4063    0.2513    0.0000 C   0  0  0  0  0  0  0  0  0  0  0  0
   -6.0417   -1.5446    0.0000 C   0  0  0  0  0  0  0  0  0  0  0  0
    4.2262   -0.3634    0.0000 C   0  0  0  0  0  0  0  0  0  0  0  0
    4.6460    0.3294    0.0000 C   0  0  0  0  0  0  0  0  0  0  0  0
    7.6718    0.0219    0.0000 C   0  0  0  0  0  0  0  0  0  0  0  0
   -2.1765   -0.4659    0.0000 C   0  0  0  0  0  0  0  0  0  0  0  0
    0.8345   -2.2375    0.0000 S   0  0  0  0  0  0  0  0  0  0  0  0
    7.6571   -1.4274    0.0000 S   0  0  0  0  0  0  0  0  0  0  0  0
   -6.0516   -2.9744    0.0000 S   0  0  0  0  0  0  0  0  0  0  0  0
    1.2639   -0.0951    0.0000 C   0  0  0  0  0  0  0  0  0  0  0  0
   -5.6269   -0.8369    0.0000 C   0  0  0  0  0  0  0  0  0  0  0  0
   -1.2200   -1.5153    0.0000 S   0  0  0  0  0  0  0  0  0  0  0  0
    4.2116   -1.7934    0.0000 S   0  0  0  0  0  0  0  0  0  0  0  0
   -0.3806   -0.0707    0.0000 C   0  0  0  0  0  0  0  0  0  0  0  0
    4.2408    1.0614    0.0000 O   0  0  0  0  0  0  0  0  0  0  0  0
   -2.5914    0.2513    0.0000 O   0  0  0  0  0  0  0  0  0  0  0  0
   -8.4867    1.3298    0.0000 S   0  0  0  0  0  0  0  0  0  0  0  0
    5.2267    2.8769    0.0000 S   0  0  0  0  0  0  0  0  0  0  0  0
   -1.6055    2.0815    0.0000 S   0  0  0  0  0  0  0  0  0  0  0  0
    6.4468    0.7247    0.0000 C   0  0  0  0  0  0  0  0  0  0  0  0
    3.4015   -0.3634    0.0000 C   0  0  0  0  0  0  0  0  0  0  0  0
   -2.6011   -1.1786    0.0000 C   0  0  0  0  0  0  0  0  0  0  0  0
   -3.4210   -1.1639    0.0000 C   0  0  0  0  0  0  0  0  0  0  0  0
    6.8469    0.0073    0.0000 C   0  0  0  0  0  0  0  0  0  0  0  0
   -6.8616   -1.5446    0.0000 C   0  0  0  0  0  0  0  0  0  0  0  0
   -4.6508   -0.4513    0.0000 O   0  0  0  0  0  0  0  0  0  0  0  0
    2.0936    0.3392    0.0000 O   0  0  0  0  0  0  0  0  0  0  0  0
    0.8540    0.6368    0.0000 O   0  0  0  0  0  0  0  0  0  0  0  0
   -6.0270   -0.1097    0.0000 O   0  0  0  0  0  0  0  0  0  0  0  0
    0.0342    0.6368    0.0000 C   0  0  0  0  0  0  0  0  0  0  0  0
   -1.3518   -0.0658    0.0000 O   0  0  0  0  0  0  0  0  0  0  0  0
    6.8665    1.4324    0.0000 C   0  0  0  0  0  0  0  0  0  0  0  0
    5.4659    0.7393    0.0000 O   0  0  0  0  0  0  0  0  0  0  0  0
    8.1012    0.7100    0.0000 C   0  0  0  0  0  0  0  0  0  0  0  0
    7.6864    1.4324    0.0000 O   0  0  0  0  0  0  0  0  0  0  0  0
   -6.8469   -0.1097    0.0000 C   0  0  0  0  0  0  0  0  0  0  0  0
   -7.2765   -0.8223    0.0000 C   0  0  0  0  0  0  0  0  0  0  0  0
    1.2493   -1.5153    0.0000 N   0  0  0  0  0  0  0  0  0  0  0  0
   -5.6416   -2.2668    0.0000 N   0  0  0  0  0  0  0  0  0  0  0  0
    8.0866   -0.7100    0.0000 N   0  0  0  0  0  0  0  0  0  0  0  0
   -0.3952   -1.5007    0.0000 O   0  0  0  0  0  0  0  0  0  0  0  0
    4.6314   -1.0760    0.0000 O   0  0  0  0  0  0  0  0  0  0  0  0
   -3.8115    0.9735    0.0000 C   0  0  0  0  0  0  0  0  0  0  0  0
    3.0062    1.7837    0.0000 C   0  0  0  0  0  0  0  0  0  0  0  0
   -0.3659    1.3542    0.0000 C   0  0  0  0  0  0  0  0  0  0  0  0
    6.4615    2.1547    0.0000 C   0  0  0  0  0  0  0  0  0  0  0  0
   -7.2618    0.6075    0.0000 C   0  0  0  0  0  0  0  0  0  0  0  0
   -1.1956    1.3689    0.0000 O   0  0  0  0  0  0  0  0  0  0  0  0
    5.6269    2.1547    0.0000 O   0  0  0  0  0  0  0  0  0  0  0  0
   -8.0866    0.5929    0.0000 O   0  0  0  0  0  0  0  0  0  0  0  0
    1.2395   -2.9402    0.0000 O   0  0  0  0  0  0  0  0  0  0  0  0
   -5.6416   -3.6821    0.0000 O   0  0  0  0  0  0  0  0  0  0  0  0
    8.0720   -2.1449    0.0000 O   0  0  0  0  0  0  0  0  0  0  0  0
    4.6264   -2.5109    0.0000 O   0  0  0  0  0  0  0  0  0  0  0  0
   -1.6348   -2.2180    0.0000 O   0  0  0  0  0  0  0  0  0  0  0  0
    4.4068    2.8769    0.0000 O   0  0  0  0  0  0  0  0  0  0  0  0
   -9.3212    1.3250    0.0000 O   0  0  0  0  0  0  0  0  0  0  0  0
   -2.4303    2.0668    0.0000 O   0  0  0  0  0  0  0  0  0  0  0  0
    0.2489   -1.6471    0.0000 O   0  0  0  0  0  0  0  0  0  0  0  0
   -6.7738   -3.3844    0.0000 O   0  0  0  0  0  0  0  0  0  0  0  0
   -6.7738   -2.5694    0.0000 O   0  0  0  0  0  0  0  0  0  0  0  0
    7.0714   -0.8369    0.0000 O   0  0  0  0  0  0  0  0  0  0  0  0
    7.0714   -2.0081    0.0000 O   0  0  0  0  0  0  0  0  0  0  0  0
    0.2489   -2.8084    0.0000 O   0  0  0  0  0  0  0  0  0  0  0  0
    3.4991   -2.2082    0.0000 O   0  0  0  0  0  0  0  0  0  0  0  0
    3.6358   -1.2078    0.0000 O   0  0  0  0  0  0  0  0  0  0  0  0
   -1.2200   -0.6758    0.0000 O   0  0  0  0  0  0  0  0  0  0  0  0
   -2.0155   -1.2810    0.0000 O   0  0  0  0  0  0  0  0  0  0  0  0
   -8.2915    2.1254    0.0000 O   0  0  0  0  0  0  0  0  0  0  0  0
   -0.8102    2.2865    0.0000 O   0  0  0  0  0  0  0  0  0  0  0  0
    6.0223    3.0964    0.0000 O   0  0  0  0  0  0  0  0  0  0  0  0
    5.4366    3.6821    0.0000 O   0  0  0  0  0  0  0  0  0  0  0  0
   -1.3859    2.8769    0.0000 O   0  0  0  0  0  0  0  0  0  0  0  0
   -7.7010    1.5349    0.0000 O   0  0  0  0  0  0  0  0  0  0  0  0
    2.1814    1.7691    0.0000 O   0  0  0  0  0  0  0  0  0  0  0  0
   -4.6411    0.9883    0.0000 O   0  0  0  0  0  0  0  0  0  0  0  0
   -3.4015    1.6910    0.0000 O   0  0  0  0  0  0  0  0  0  0  0  0
    3.4259    2.4962    0.0000 O   0  0  0  0  0  0  0  0  0  0  0  0
   -2.1912   -1.8959    0.0000 O   0  0  0  0  0  0  0  0  0  0  0  0
    2.9770   -1.0711    0.0000 O   0  0  0  0  0  0  0  0  0  0  0  0
   -3.8408   -1.8813    0.0000 O   0  0  0  0  0  0  0  0  0  0  0  0
    6.4322   -0.7051    0.0000 O   0  0  0  0  0  0  0  0  0  0  0  0
   -7.2862   -2.2619    0.0000 O   0  0  0  0  0  0  0  0  0  0  0  0
   -8.1012   -0.8418    0.0000 O   0  0  0  0  0  0  0  0  0  0  0  0
    8.9211    0.7100    0.0000 O   0  0  0  0  0  0  0  0  0  0  0  0
    9.3212   -0.0073    0.0000 C   0  0  0  0  0  0  0  0  0  0  0  0
  2  1  1  0
  3 32  1  6
  4 28  1  0
  5  3  1  0
  6 21  1  0
  7 16  1  0
  8 26  1  0
  9  8  1  0
 10 29  1  0
 11 36  1  1
 12 43  1  0
 13 45  1  0
 14 44  1  0
 15  2  1  0
 16 31  1  6
 17 46  1  0
 18 47  1  0
 19  1  1  0
 20  5  1  0
 21 11  1  0
 22 55  1  0
 23 54  1  0
 24 53  1  0
 25 38  1  6
 26  3  1  0
 27 11  1  0
 28 27  1  0
 29 25  1  0
 30  7  1  0
  4 31  1  6
 15 32  1  6
 33 35  1  0
 34 16  1  0
 35 19  1  0
 19 36  1  6
 37 25  1  0
  9 38  1  1
 39 40  1  0
 40 37  1  0
 41 34  1  0
 42 41  1  0
  2 43  1  6
  7 44  1  6
 10 45  1  6
  1 46  1  1
  8 47  1  6
  6 48  1  1
  5 49  1  6
 35 50  1  1
 37 51  1  1
 41 52  1  1
 53 50  1  0
 54 51  1  0
 55 52  1  0
 56 12  1  0
 57 14  1  0
 58 13  1  0
 59 18  1  0
 60 17  1  0
 61 23  1  0
 62 22  1  0
 63 24  1  0
 64 12  2  0
 65 14  2  0
 66 14  2  0
 67 13  2  0
 68 13  2  0
 69 12  2  0
 70 18  2  0
 71 18  2  0
 72 17  2  0
 73 17  2  0
 74 22  2  0
 75 24  2  0
 76 23  2  0
 77 23  2  0
 78 24  2  0
 79 22  2  0
 80 49  1  0
 81 48  1  0
 82 48  2  0
 83 49  2  0
 27 84  1  6
 26 85  1  1
 28 86  1  1
 29 87  1  1
 30 88  1  1
 42 89  1  6
 39 90  1  6
 91 90  1  0
 15 33  1  0
  6  4  1  0
  9 20  1  0
 42 30  1  0
 10 39  1  0
M  END
$$$$
