799
     RDKit          2D

 25 27  0  0  0  0  0  0  0  0999 V2000
    2.3645    2.2713    0.0000 S   0  0  0  0  0  0  0  0  0  0  0  0
    9.5574   -1.0652    0.0000 O   0  0  0  0  0  0  0  0  0  0  0  0
    8.8381   -2.2999    0.0000 O   0  0  0  0  0  0  0  0  0  0  0  0
    6.6995   -1.0541    0.0000 N   0  0  0  0  0  0  0  0  0  0  0  0
    2.3645    0.6213    0.0000 C   0  0  0  0  0  0  0  0  0  0  0  0
    1.6500    1.0338    0.0000 C   0  0  0  0  0  0  0  0  0  0  0  0
    3.0790    1.0338    0.0000 C   0  0  0  0  0  0  0  0  0  0  0  0
    1.9520   -0.0931    0.0000 C   0  0  0  0  0  0  0  0  0  0  0  0
    2.7770   -0.0931    0.0000 C   0  0  0  0  0  0  0  0  0  0  0  0
    1.6500    1.8588    0.0000 C   0  0  0  0  0  0  0  0  0  0  0  0
    3.0790    1.8588    0.0000 C   0  0  0  0  0  0  0  0  0  0  0  0
    3.8165    0.5927    0.0000 C   0  0  0  0  0  0  0  0  0  0  0  0
    3.8165    2.2999    0.0000 C   0  0  0  0  0  0  0  0  0  0  0  0
    4.5640    1.0167    0.0000 C   0  0  0  0  0  0  0  0  0  0  0  0
    4.5640    1.8760    0.0000 C   0  0  0  0  0  0  0  0  0  0  0  0
    5.2769    0.6013    0.0000 C   0  0  0  0  0  0  0  0  0  0  0  0
    5.9897    0.1861    0.0000 C   0  0  0  0  0  0  0  0  0  0  0  0
    6.7026   -0.2291    0.0000 C   0  0  0  0  0  0  0  0  0  0  0  0
    7.4187    0.1806    0.0000 C   0  0  0  0  0  0  0  0  0  0  0  0
    8.1284   -1.0596    0.0000 C   0  0  0  0  0  0  0  0  0  0  0  0
    8.1316   -0.2346    0.0000 C   0  0  0  0  0  0  0  0  0  0  0  0
    7.4124   -1.4694    0.0000 C   0  0  0  0  0  0  0  0  0  0  0  0
    8.8413   -1.4749    0.0000 C   0  0  0  0  0  0  0  0  0  0  0  0
   10.2702   -1.4804    0.0000 C   0  0  0  0  0  0  0  0  0  0  0  0
   10.9863   -1.0707    0.0000 C   0  0  0  0  0  0  0  0  0  0  0  0
  1 10  1  0
  1 11  1  0
  2 23  1  0
  2 24  1  0
  3 23  2  0
  4 18  2  0
  4 22  1  0
  5  6  1  0
  5  7  1  0
  5  8  1  0
  5  9  1  0
  6 10  1  0
  7 11  2  0
  7 12  1  0
 11 13  1  0
 12 14  2  0
 13 15  2  0
 14 15  1  0
 14 16  1  0
 16 17  3  0
 17 18  1  0
 18 19  1  0
 19 21  2  0
 20 21  1  0
 20 22  2  0
 20 23  1  0
 24 25  1  0
M  END
$$$$
