690
     RDKit          2D

 27 29  0  0  0  0  0  0  0  0999 V2000
    5.2302   -2.7288    0.0000 Cl  0  0  0  0  0  0  0  0  0  0  0  0
    8.0735    0.3999    0.0000 F   0  0  0  0  0  0  0  0  0  0  0  0
    5.0238    1.9897    0.0000 O   0  0  0  0  0  0  0  0  0  0  0  0
    4.8673    0.6014    0.0000 N   0  0  0  0  0  0  0  0  0  0  0  0
    3.0155    1.7569    0.0000 N   0  0  0  0  0  0  0  0  0  0  0  0
    6.7212    0.6014    0.0000 N   0  0  0  0  0  0  0  0  0  0  0  0
    4.0630    0.7849    0.0000 C   0  0  0  0  0  0  0  0  0  0  0  0
    3.8198    1.5733    0.0000 C   0  0  0  0  0  0  0  0  0  0  0  0
    5.0509   -0.2030    0.0000 C   0  0  0  0  0  0  0  0  0  0  0  0
    2.4543    1.1521    0.0000 C   0  0  0  0  0  0  0  0  0  0  0  0
    2.7723    2.5453    0.0000 C   0  0  0  0  0  0  0  0  0  0  0  0
    5.7942   -0.5609    0.0000 C   0  0  0  0  0  0  0  0  0  0  0  0
    5.3817    1.2464    0.0000 C   0  0  0  0  0  0  0  0  0  0  0  0
    6.5376   -0.2030    0.0000 C   0  0  0  0  0  0  0  0  0  0  0  0
    6.2068    1.2464    0.0000 C   0  0  0  0  0  0  0  0  0  0  0  0
    4.3336   -0.6761    0.0000 C   0  0  0  0  0  0  0  0  0  0  0  0
    5.8716   -1.4168    0.0000 C   0  0  0  0  0  0  0  0  0  0  0  0
    1.6500    1.3357    0.0000 C   0  0  0  0  0  0  0  0  0  0  0  0
    1.9680    2.7288    0.0000 C   0  0  0  0  0  0  0  0  0  0  0  0
    7.1826   -0.7174    0.0000 C   0  0  0  0  0  0  0  0  0  0  0  0
    4.3911   -1.5335    0.0000 C   0  0  0  0  0  0  0  0  0  0  0  0
    5.1654   -1.9064    0.0000 C   0  0  0  0  0  0  0  0  0  0  0  0
    7.9506   -0.4160    0.0000 C   0  0  0  0  0  0  0  0  0  0  0  0
    7.0597   -1.5332    0.0000 C   0  0  0  0  0  0  0  0  0  0  0  0
    8.5956   -0.9304    0.0000 C   0  0  0  0  0  0  0  0  0  0  0  0
    7.7047   -2.0475    0.0000 C   0  0  0  0  0  0  0  0  0  0  0  0
    8.4727   -1.7461    0.0000 C   0  0  0  0  0  0  0  0  0  0  0  0
  1 22  1  0
  2 23  1  0
  3 13  2  0
  4  7  1  0
  4  9  1  0
  4 13  1  0
  5  8  1  0
  5 10  1  0
  5 11  1  0
  6 14  2  0
  6 15  1  0
  7  8  1  0
  9 12  2  0
  9 16  1  0
 10 18  1  0
 11 19  1  0
 12 14  1  0
 12 17  1  0
 13 15  1  0
 14 20  1  0
 16 21  2  0
 17 22  2  0
 20 23  2  0
 20 24  1  0
 21 22  1  0
 23 25  1  0
 24 26  2  0
 25 27  2  0
 26 27  1  0
M  END
$$$$
