
     RDKit          2D

 23 25  0  0  0  0  0  0  0  0999 V2000
    3.3137    1.1210    0.0000 C   0  0  0  0  0  0  0  0  0  0  0  0
    2.6648    2.0142    0.0000 C   0  0  0  0  0  0  0  0  0  0  0  0
   -3.3137    0.0803    0.0000 C   0  0  0  0  0  0  0  0  0  0  0  0
   -2.9012   -0.6341    0.0000 C   0  0  0  0  0  0  0  0  0  0  0  0
   -2.9012    0.7947    0.0000 C   0  0  0  0  0  0  0  0  0  0  0  0
   -1.2512   -2.0142    0.0000 C   0  0  0  0  0  0  0  0  0  0  0  0
   -0.4262   -2.0142    0.0000 C   0  0  0  0  0  0  0  0  0  0  0  0
   -2.0762   -0.6341    0.0000 C   0  0  0  0  0  0  0  0  0  0  0  0
   -2.0762    0.7947    0.0000 C   0  0  0  0  0  0  0  0  0  0  0  0
   -1.5062   -1.2296    0.0000 C   0  0  0  0  0  0  0  0  0  0  0  0
   -0.1713   -1.2296    0.0000 C   0  0  0  0  0  0  0  0  0  0  0  0
    1.7086    0.1273    0.0000 C   0  0  0  0  0  0  0  0  0  0  0  0
    2.4932    0.3822    0.0000 C   0  0  0  0  0  0  0  0  0  0  0  0
    1.7086    1.4622    0.0000 C   0  0  0  0  0  0  0  0  0  0  0  0
   -1.6637    0.0803    0.0000 C   0  0  0  0  0  0  0  0  0  0  0  0
   -0.8387   -0.7446    0.0000 C   0  0  0  0  0  0  0  0  0  0  0  0
    1.2237    0.7947    0.0000 C   0  0  0  0  0  0  0  0  0  0  0  0
   -0.0137    0.0803    0.0000 C   0  0  0  0  0  0  0  0  0  0  0  0
   -0.8387    0.0803    0.0000 C   0  0  0  0  0  0  0  0  0  0  0  0
    2.4932    1.2072    0.0000 N   0  0  0  0  0  0  0  0  0  0  0  0
    0.3987   -0.6341    0.0000 O   0  0  0  0  0  0  0  0  0  0  0  0
   -0.8387    0.9053    0.0000 O   0  0  0  0  0  0  0  0  0  0  0  0
    0.3987    0.7947    0.0000 O   0  0  0  0  0  0  0  0  0  0  0  0
  4  3  2  0
  5  3  1  0
  7  6  1  0
  8  4  1  0
  9  5  2  0
 10  6  1  0
 11  7  1  0
 13 12  1  0
 15  8  2  0
 15  9  1  0
 16 10  1  0
 16 11  1  0
 17 12  1  0
 17 14  1  0
 19 15  1  0
 19 16  1  0
 19 18  1  0
 20  1  1  0
 20  2  1  0
 20 13  1  0
 20 14  1  0
 21 18  2  0
 19 22  1  6
 17 23  1  6
 23 18  1  0
M  CHG  1  20   1
M  END
$$$$
