480
     RDKit          2D

 19 21  0  0  1  0  0  0  0  0999 V2000
    4.1159   -1.6769    0.0000 O   0  0  0  0  0  0  0  0  0  0  0  0
    5.1662    1.2002    0.0000 O   0  0  0  0  0  0  0  0  0  0  0  0
    7.6412   -0.2289    0.0000 O   0  0  0  0  0  0  0  0  0  0  0  0
    4.3412   -0.2289    0.0000 N   0  0  0  0  0  0  0  0  0  0  0  0
    6.4037    0.4857    0.0000 N   0  0  0  0  0  0  0  0  0  0  0  0
    2.3645    1.4212    0.0000 N   0  0  0  0  0  0  0  0  0  0  0  0
    5.1662   -0.2289    0.0000 C   0  0  0  0  0  0  0  0  0  0  0  0
    5.5787   -0.9433    0.0000 C   0  0  0  0  0  0  0  0  0  0  0  0
    3.8597    0.4351    0.0000 C   0  0  0  0  0  0  0  0  0  0  0  0
    3.0791    0.1836    0.0000 C   0  0  0  0  0  0  0  0  0  0  0  0
    3.8597   -0.8928    0.0000 C   0  0  0  0  0  0  0  0  0  0  0  0
    6.4037   -0.9433    0.0000 C   0  0  0  0  0  0  0  0  0  0  0  0
    3.0791   -0.6414    0.0000 C   0  0  0  0  0  0  0  0  0  0  0  0
    5.5787    0.4857    0.0000 C   0  0  0  0  0  0  0  0  0  0  0  0
    6.8162   -0.2289    0.0000 C   0  0  0  0  0  0  0  0  0  0  0  0
    2.3645    0.5962    0.0000 C   0  0  0  0  0  0  0  0  0  0  0  0
    2.3645   -1.0539    0.0000 C   0  0  0  0  0  0  0  0  0  0  0  0
    1.6500    0.1836    0.0000 C   0  0  0  0  0  0  0  0  0  0  0  0
    1.6500   -0.6414    0.0000 C   0  0  0  0  0  0  0  0  0  0  0  0
  1 11  2  0
  2 14  2  0
  3 15  2  0
  4  7  1  0
  4  9  1  0
  4 11  1  0
  5 14  1  0
  5 15  1  0
  6 16  1  0
  7  8  1  0
  7 14  1  0
  8 12  1  0
  9 10  1  0
 10 13  2  0
 10 16  1  0
 11 13  1  0
 12 15  1  0
 13 17  1  0
 16 18  2  0
 17 19  2  0
 18 19  1  0
M  END
$$$$
