794
     RDKit          2D

 16 17  0  0  0  0  0  0  0  0999 V2000
    1.6500   -0.2467    0.0000 O   0  0  0  0  0  0  0  0  0  0  0  0
    4.5080   -0.2467    0.0000 O   0  0  0  0  0  0  0  0  0  0  0  0
    2.3645   -1.4842    0.0000 N   0  0  0  0  0  0  0  0  0  0  0  0
    3.7935   -1.4842    0.0000 N   0  0  0  0  0  0  0  0  0  0  0  0
    3.0791   -0.2467    0.0000 C   0  0  0  0  0  0  0  0  0  0  0  0
    2.6665    0.4678    0.0000 C   0  0  0  0  0  0  0  0  0  0  0  0
    3.4916    0.4678    0.0000 C   0  0  0  0  0  0  0  0  0  0  0  0
    2.3645   -0.6592    0.0000 C   0  0  0  0  0  0  0  0  0  0  0  0
    3.7935   -0.6592    0.0000 C   0  0  0  0  0  0  0  0  0  0  0  0
    3.0791   -1.8967    0.0000 C   0  0  0  0  0  0  0  0  0  0  0  0
    1.8415    0.4678    0.0000 C   0  0  0  0  0  0  0  0  0  0  0  0
    3.0791    1.1823    0.0000 C   0  0  0  0  0  0  0  0  0  0  0  0
    4.3166    0.4678    0.0000 C   0  0  0  0  0  0  0  0  0  0  0  0
    3.4916    1.8967    0.0000 C   0  0  0  0  0  0  0  0  0  0  0  0
    4.7291    1.1823    0.0000 C   0  0  0  0  0  0  0  0  0  0  0  0
    4.3166    1.8967    0.0000 C   0  0  0  0  0  0  0  0  0  0  0  0
  1  8  2  0
  2  9  2  0
  3  8  1  0
  3 10  1  0
  4  9  1  0
  4 10  1  0
  5  6  1  0
  5  7  1  0
  5  8  1  0
  5  9  1  0
  6 11  1  0
  7 12  2  0
  7 13  1  0
 12 14  1  0
 13 15  2  0
 14 16  2  0
 15 16  1  0
M  END
$$$$
