1586
     RDKit          2D

 28 31  0  0  1  0  0  0  0  0999 V2000
    6.5590   -2.5194    0.0000 O   0  0  0  0  0  0  0  0  0  0  0  0
    2.0919   -2.5366    0.0000 O   0  0  0  0  0  0  0  0  0  0  0  0
    9.7049    2.9254    0.0000 O   0  0  0  0  0  0  0  0  0  0  0  0
    9.9996    1.5273    0.0000 O   0  0  0  0  0  0  0  0  0  0  0  0
    6.5410   -0.8436    0.0000 C   0  0  0  0  0  0  0  0  0  0  0  0
    6.5410   -0.0186    0.0000 C   0  0  0  0  0  0  0  0  0  0  0  0
    5.8265   -1.2561    0.0000 C   0  0  0  0  0  0  0  0  0  0  0  0
    5.1122   -0.8436    0.0000 C   0  0  0  0  0  0  0  0  0  0  0  0
    4.3614   -1.2617    0.0000 C   0  0  0  0  0  0  0  0  0  0  0  0
    7.3215    0.2327    0.0000 C   0  0  0  0  0  0  0  0  0  0  0  0
    4.3547   -2.1210    0.0000 C   0  0  0  0  0  0  0  0  0  0  0  0
    5.8265    0.3939    0.0000 C   0  0  0  0  0  0  0  0  0  0  0  0
    5.1122   -0.0186    0.0000 C   0  0  0  0  0  0  0  0  0  0  0  0
    5.8398   -2.1153    0.0000 C   0  0  0  0  0  0  0  0  0  0  0  0
    7.3215   -1.0949    0.0000 C   0  0  0  0  0  0  0  0  0  0  0  0
    7.8030   -0.4312    0.0000 C   0  0  0  0  0  0  0  0  0  0  0  0
    5.0990   -2.5506    0.0000 C   0  0  0  0  0  0  0  0  0  0  0  0
    3.5968   -0.7963    0.0000 C   0  0  0  0  0  0  0  0  0  0  0  0
    6.5410    0.8063    0.0000 C   0  0  0  0  0  0  0  0  0  0  0  0
    7.5779    1.0169    0.0000 C   0  0  0  0  0  0  0  0  0  0  0  0
    3.5831   -2.5745    0.0000 C   0  0  0  0  0  0  0  0  0  0  0  0
    4.3678   -0.4368    0.0000 C   0  0  0  0  0  0  0  0  0  0  0  0
    2.8148   -1.2319    0.0000 C   0  0  0  0  0  0  0  0  0  0  0  0
    2.8079   -2.1270    0.0000 C   0  0  0  0  0  0  0  0  0  0  0  0
    8.3851    1.1870    0.0000 C   0  0  0  0  0  0  0  0  0  0  0  0
    7.0270    1.6310    0.0000 C   0  0  0  0  0  0  0  0  0  0  0  0
    8.6415    1.9712    0.0000 C   0  0  0  0  0  0  0  0  0  0  0  0
    9.4487    2.1413    0.0000 C   0  0  0  0  0  0  0  0  0  0  0  0
 14  1  1  1
 24  2  1  6
  3 28  1  0
  4 28  2  0
  5  6  1  0
  5  7  1  0
  5 15  1  1
  6 10  1  0
  6 12  1  0
  6 19  1  1
  7  8  1  0
  7 14  1  6
  8  9  1  0
  8 13  1  1
  9 11  1  0
  9 18  1  0
  9 22  1  1
 10 16  1  1
 10 20  1  0
 11 17  1  6
 11 21  1  0
 12 13  1  0
 14 17  1  0
 15 16  1  0
 18 23  1  0
 20 25  1  0
 20 26  1  6
 21 24  1  0
 23 24  1  0
 25 27  1  0
 27 28  1  0
M  END
$$$$
