1186
     RDKit          2D

 22 25  0  0  1  0  0  0  0  0999 V2000
    2.3661    2.3349    0.0000 S   0  0  0  0  0  0  0  0  0  0  0  0
    4.5705    1.0944    0.0000 N   0  0  0  0  0  0  0  0  0  0  0  0
    5.5455   -2.3016    0.0000 N   0  0  0  0  0  0  0  0  0  0  0  0
    3.8428   -0.1774    0.0000 C   0  0  0  0  0  0  0  0  0  0  0  0
    4.5572    0.2351    0.0000 C   0  0  0  0  0  0  0  0  0  0  0  0
    3.0920    0.2408    0.0000 C   0  0  0  0  0  0  0  0  0  0  0  0
    3.0853    1.1002    0.0000 C   0  0  0  0  0  0  0  0  0  0  0  0
    3.8296    1.5298    0.0000 C   0  0  0  0  0  0  0  0  0  0  0  0
    5.2717   -0.1774    0.0000 C   0  0  0  0  0  0  0  0  0  0  0  0
    3.8428   -1.0024    0.0000 C   0  0  0  0  0  0  0  0  0  0  0  0
    5.2717   -1.0024    0.0000 C   0  0  0  0  0  0  0  0  0  0  0  0
    4.5572   -1.4149    0.0000 C   0  0  0  0  0  0  0  0  0  0  0  0
    5.2897    1.4986    0.0000 C   0  0  0  0  0  0  0  0  0  0  0  0
    2.3693    1.5099    0.0000 C   0  0  0  0  0  0  0  0  0  0  0  0
    4.5705   -2.2742    0.0000 C   0  0  0  0  0  0  0  0  0  0  0  0
    3.0920   -1.4205    0.0000 C   0  0  0  0  0  0  0  0  0  0  0  0
    5.8797   -1.5528    0.0000 C   0  0  0  0  0  0  0  0  0  0  0  0
    5.2993    2.3236    0.0000 C   0  0  0  0  0  0  0  0  0  0  0  0
    3.8296   -2.7095    0.0000 C   0  0  0  0  0  0  0  0  0  0  0  0
    3.0853   -2.2799    0.0000 C   0  0  0  0  0  0  0  0  0  0  0  0
    6.0184    2.7278    0.0000 C   0  0  0  0  0  0  0  0  0  0  0  0
    1.6500    2.7447    0.0000 C   0  0  0  0  0  0  0  0  0  0  0  0
  1 14  1  0
  1 22  1  0
  2  5  1  0
  2  8  1  0
  2 13  1  0
  3 15  1  0
  3 17  1  0
  4  5  1  0
  4  6  1  1
  4 10  1  0
  5  9  1  6
  6  7  1  0
  7  8  1  0
  7 14  1  1
  9 11  1  0
 10 12  2  0
 10 16  1  0
 11 12  1  0
 11 17  2  0
 12 15  1  0
 13 18  1  0
 15 19  2  0
 16 20  2  0
 18 21  1  0
 19 20  1  0
M  END
$$$$
