
     RDKit          2D

  4  3  0  0  0  0  0  0  0  0999 V2000
    0.4429    1.2375    0.0000 O   0  0  0  0  0  0  0  0  0  0  0  0
    1.8719    1.2375    0.0000 O   0  0  0  0  0  0  0  0  0  0  0  0
    1.1575    0.0000    0.0000 O   0  0  0  0  0  0  0  0  0  0  0  0
    1.1575    0.8250    0.0000 C   0  0  0  0  0  0  0  0  0  0  0  0
  1  4  1  0
  2  4  1  0
  3  4  2  0
M  CHG  1   2  -1
M  END
$$$$
