
     RDKit          2D

 18 20  0  0  1  0  0  0  0  0999 V2000
   18.8939   -5.1899    0.0000 C   0  0  0  0  0  0  0  0  0  0  0  0
   18.1188   -5.1899    0.0000 C   0  0  0  0  0  0  0  0  0  0  0  0
   19.3779   -4.6066    0.0000 C   0  0  0  0  0  0  0  0  0  0  0  0
   15.2537   -4.3585    0.0000 C   0  0  0  0  0  0  0  0  0  0  0  0
   15.2524   -5.1858    0.0000 C   0  0  0  0  0  0  0  0  0  0  0  0
   15.9671   -5.5985    0.0000 C   0  0  0  0  0  0  0  0  0  0  0  0
   15.9653   -3.9460    0.0000 C   0  0  0  0  0  0  0  0  0  0  0  0
   16.6805   -4.3549    0.0000 C   0  0  0  0  0  0  0  0  0  0  0  0
   16.6794   -5.1879    0.0000 C   0  0  0  0  0  0  0  0  0  0  0  0
   17.3961   -5.6029    0.0000 C   0  0  0  0  0  0  0  0  0  0  0  0
   18.1199   -4.3570    0.0000 C   0  0  0  0  0  0  0  0  0  0  0  0
   17.3986   -3.9373    0.0000 C   0  0  0  0  0  0  0  0  0  0  0  0
   18.7430   -4.0563    0.0000 N   0  0  0  0  0  0  0  0  0  0  0  0
   14.5393   -3.9463    0.0000 O   0  0  0  0  0  0  0  0  0  0  0  0
   18.8067   -3.3539    0.0000 C   0  0  0  0  0  0  0  0  0  0  0  0
   17.9819   -3.3539    0.0000 C   0  0  0  0  0  0  0  0  0  0  0  0
   19.3901   -3.9373    0.0000 C   0  0  0  0  0  0  0  0  0  0  0  0
   16.8161   -3.3493    0.0000 C   0  0  0  0  0  0  0  0  0  0  0  0
  2  1  1  1
  1  3  1  0
 10  2  1  0
  2 11  1  0
 11 12  1  0
  8  9  2  0
  5  6  2  0
  6  9  1  0
  4  5  1  0
  8  7  1  0
  7  4  2  0
 11 13  1  1
  8 12  1  0
  9 10  1  0
  4 14  1  0
 16 15  1  0
 12 16  1  0
 15 17  1  0
  3 17  1  0
 12 18  1  6
M  END
$$$$
