1255
     RDKit          2D

 19 19  0  0  0  0  0  0  0  0999 V2000
   -0.8608   -0.5948    0.0000 C   0  0  0  0  0  0  0  0  0  0  0  0
   -1.5748   -1.0081    0.0000 C   0  0  0  0  0  0  0  0  0  0  0  0
   -2.2898   -0.5965    0.0000 C   0  0  0  0  0  0  0  0  0  0  0  0
   -2.2907    0.2285    0.0000 C   0  0  0  0  0  0  0  0  0  0  0  0
   -1.5768    0.6419    0.0000 C   0  0  0  0  0  0  0  0  0  0  0  0
   -0.8618    0.2302    0.0000 C   0  0  0  0  0  0  0  0  0  0  0  0
   -0.1478    0.6436    0.0000 C   0  0  0  0  0  0  0  0  0  0  0  0
    0.5671    0.2319    0.0000 C   0  0  0  0  0  0  0  0  0  0  0  0
    1.2811    0.6453    0.0000 N   0  0  0  0  0  0  0  0  0  0  0  0
    1.9961    0.2336    0.0000 C   0  0  0  0  0  0  0  0  0  0  0  0
    2.7101    0.6470    0.0000 C   0  0  0  0  0  0  0  0  0  0  0  0
    3.4250    0.2353    0.0000 C   0  0  0  0  0  0  0  0  0  0  0  0
    4.1390    0.6487    0.0000 C   0  0  0  0  0  0  0  0  0  0  0  0
    4.8540    0.2370    0.0000 C   0  0  0  0  0  0  0  0  0  0  0  0
    5.5679    0.6504    0.0000 C   0  0  0  0  0  0  0  0  0  0  0  0
    0.5681   -0.5931    0.0000 C   0  0  0  0  0  0  0  0  0  0  0  0
    1.9971   -0.5914    0.0000 O   0  0  0  0  0  0  0  0  0  0  0  0
    2.7091    1.4720    0.0000 N   0  0  0  0  0  0  0  0  0  0  0  0
    6.2829    0.2387    0.0000 N   0  0  0  0  0  0  0  0  0  0  0  0
  1  2  2  0
  1  6  1  0
  2  3  1  0
  3  4  2  0
  4  5  1  0
  5  6  2  0
  6  7  1  0
  7  8  1  0
  8  9  1  0
  9 10  1  0
 10 11  1  0
 11 12  1  0
 12 13  1  0
 13 14  1  0
 14 15  1  0
  8 16  1  1
 10 17  2  0
 11 18  1  1
 15 19  1  0
M  END
$$$$
