
     RDKit          2D

 35 38  0  0  0  0  0  0  0  0999 V2000
   -0.0315    0.0655    0.0000 C   0  0  0  0  0  0  0  0  0  0  0  0
    0.7554    0.3133    0.0000 C   0  0  0  0  0  0  0  0  0  0  0  0
   -2.1836   -1.1586    0.0000 C   0  0  0  0  0  0  0  0  0  0  0  0
   -0.7554   -1.1586    0.0000 C   0  0  0  0  0  0  0  0  0  0  0  0
   -0.0412   -0.7505    0.0000 C   0  0  0  0  0  0  0  0  0  0  0  0
   -1.4694   -0.7456    0.0000 C   0  0  0  0  0  0  0  0  0  0  0  0
   -2.1836   -1.9844    0.0000 C   0  0  0  0  0  0  0  0  0  0  0  0
   -0.7457    0.4881    0.0000 C   0  0  0  0  0  0  0  0  0  0  0  0
   -1.4694    0.0801    0.0000 C   0  0  0  0  0  0  0  0  0  0  0  0
   -2.8977   -0.7456    0.0000 C   0  0  0  0  0  0  0  0  0  0  0  0
    0.7457    1.1440    0.0000 C   0  0  0  0  0  0  0  0  0  0  0  0
   -2.8977   -2.3974    0.0000 C   0  0  0  0  0  0  0  0  0  0  0  0
    1.4694    0.7360    0.0000 O   0  0  0  0  0  0  0  0  0  0  0  0
    2.1885    0.3278    0.0000 C   0  0  0  0  0  0  0  0  0  0  0  0
    1.2266   -0.3570    0.0000 C   0  0  0  0  0  0  0  0  0  0  0  0
    0.7408   -1.0176    0.0000 C   0  0  0  0  0  0  0  0  0  0  0  0
   -0.7603   -1.9893    0.0000 C   0  0  0  0  0  0  0  0  0  0  0  0
   -3.6118   -1.1586    0.0000 C   0  0  0  0  0  0  0  0  0  0  0  0
   -3.6118   -1.9844    0.0000 C   0  0  0  0  0  0  0  0  0  0  0  0
   -1.4743   -2.3974    0.0000 C   0  0  0  0  0  0  0  0  0  0  0  0
    2.8880    1.5715    0.0000 C   0  0  0  0  0  0  0  0  0  0  0  0
    1.4598    1.5666    0.0000 C   0  0  0  0  0  0  0  0  0  0  0  0
    2.1885   -0.4978    0.0000 O   0  0  0  0  0  0  0  0  0  0  0  0
    0.0315    1.5520    0.0000 O   0  0  0  0  0  0  0  0  0  0  0  0
    2.1739    1.1586    0.0000 O   0  0  0  0  0  0  0  0  0  0  0  0
    2.8831    2.3974    0.0000 O   0  0  0  0  0  0  0  0  0  0  0  0
   -4.3260   -2.3925    0.0000 O   0  0  0  0  0  0  0  0  0  0  0  0
   -0.0412    0.8963    0.0000 C   0  0  0  0  0  0  0  0  0  0  0  0
   -2.1836    0.5027    0.0000 O   0  0  0  0  0  0  0  0  0  0  0  0
    2.8977    0.7505    0.0000 O   0  0  0  0  0  0  0  0  0  0  0  0
   -2.1885   -0.3278    0.0000 C   0  0  0  0  0  0  0  0  0  0  0  0
    3.6022    1.1635    0.0000 C   0  0  0  0  0  0  0  0  0  0  0  0
    3.6167    0.3424    0.0000 C   0  0  0  0  0  0  0  0  0  0  0  0
    4.3163    1.5812    0.0000 C   0  0  0  0  0  0  0  0  0  0  0  0
    4.3260    0.7651    0.0000 C   0  0  0  0  0  0  0  0  0  0  0  0
  2  1  1  0
  3  6  1  0
  4  5  1  0
  5  1  1  0
  6  9  1  1
  7  3  1  0
  8  1  1  0
  9  8  1  0
 10  3  1  0
 11  2  1  0
 12  7  2  0
  2 13  1  6
 14 13  1  0
 15  2  1  0
  5 16  1  1
  4 17  1  6
 18 10  2  0
 19 18  1  0
 20 17  1  0
 21 25  1  0
 22 11  1  0
 23 14  2  0
 24 11  2  0
 25 22  1  0
 26 21  2  0
 27 19  2  0
  1 28  1  1
  9 29  1  1
 30 14  1  0
  3 31  1  1
 32 21  1  0
 33 30  1  0
 34 32  1  0
 35 33  1  0
 15 16  1  0
  6  4  1  0
 20  7  1  0
 19 12  1  0
M  END
$$$$
