1251
     RDKit          2D

 37 40  0  0  0  0  0  0  0  0999 V2000
    3.7935    0.3572    0.0000 S   0  0  0  0  0  0  0  0  0  0  0  0
    6.6514   -3.7678    0.0000 O   0  0  0  0  0  0  0  0  0  0  0  0
    8.0803   -1.2928    0.0000 O   0  0  0  0  0  0  0  0  0  0  0  0
    3.7935    2.0072    0.0000 O   0  0  0  0  0  0  0  0  0  0  0  0
   10.9927   -2.0978    0.0000 O   0  0  0  0  0  0  0  0  0  0  0  0
    3.3810   -0.3572    0.0000 O   0  0  0  0  0  0  0  0  0  0  0  0
    4.2060    1.0717    0.0000 O   0  0  0  0  0  0  0  0  0  0  0  0
    2.3645    2.0072    0.0000 N   0  0  0  0  0  0  0  0  0  0  0  0
    7.3658   -2.5303    0.0000 N   0  0  0  0  0  0  0  0  0  0  0  0
    3.0790    0.7697    0.0000 N   0  0  0  0  0  0  0  0  0  0  0  0
    2.3645    2.8323    0.0000 C   0  0  0  0  0  0  0  0  0  0  0  0
    1.6500    3.2448    0.0000 C   0  0  0  0  0  0  0  0  0  0  0  0
    3.0790    3.2448    0.0000 C   0  0  0  0  0  0  0  0  0  0  0  0
    1.6500    4.0698    0.0000 C   0  0  0  0  0  0  0  0  0  0  0  0
    3.0790    4.0698    0.0000 C   0  0  0  0  0  0  0  0  0  0  0  0
    2.3645    4.4823    0.0000 C   0  0  0  0  0  0  0  0  0  0  0  0
    8.0803   -3.7678    0.0000 C   0  0  0  0  0  0  0  0  0  0  0  0
    8.7948   -3.3553    0.0000 C   0  0  0  0  0  0  0  0  0  0  0  0
    7.3658   -3.3553    0.0000 C   0  0  0  0  0  0  0  0  0  0  0  0
    8.7948   -2.5303    0.0000 C   0  0  0  0  0  0  0  0  0  0  0  0
    7.6678   -4.4823    0.0000 C   0  0  0  0  0  0  0  0  0  0  0  0
    8.4928   -4.4823    0.0000 C   0  0  0  0  0  0  0  0  0  0  0  0
    6.6514   -2.1178    0.0000 C   0  0  0  0  0  0  0  0  0  0  0  0
    8.0803   -2.1178    0.0000 C   0  0  0  0  0  0  0  0  0  0  0  0
    3.0790    1.5947    0.0000 C   0  0  0  0  0  0  0  0  0  0  0  0
    9.5323   -3.7964    0.0000 C   0  0  0  0  0  0  0  0  0  0  0  0
    6.6514   -1.2928    0.0000 C   0  0  0  0  0  0  0  0  0  0  0  0
    9.5323   -2.0892    0.0000 C   0  0  0  0  0  0  0  0  0  0  0  0
    5.9369   -0.8803    0.0000 C   0  0  0  0  0  0  0  0  0  0  0  0
   10.2798   -3.3725    0.0000 C   0  0  0  0  0  0  0  0  0  0  0  0
   10.2798   -2.5131    0.0000 C   0  0  0  0  0  0  0  0  0  0  0  0
    4.5079   -0.0553    0.0000 C   0  0  0  0  0  0  0  0  0  0  0  0
    5.2224   -1.2928    0.0000 C   0  0  0  0  0  0  0  0  0  0  0  0
    5.9369   -0.0553    0.0000 C   0  0  0  0  0  0  0  0  0  0  0  0
    4.5079   -0.8803    0.0000 C   0  0  0  0  0  0  0  0  0  0  0  0
    5.2224    0.3572    0.0000 C   0  0  0  0  0  0  0  0  0  0  0  0
   11.7088   -2.5076    0.0000 C   0  0  0  0  0  0  0  0  0  0  0  0
  1  6  2  0
  1  7  2  0
  1 10  1  0
  1 32  1  0
  2 19  2  0
  3 24  2  0
  4 25  2  0
  5 31  1  0
  5 37  1  0
  8 11  1  0
  8 25  1  0
  9 19  1  0
  9 23  1  0
  9 24  1  0
 10 25  1  0
 11 12  1  0
 11 13  1  0
 12 14  1  0
 13 15  1  0
 14 16  1  0
 15 16  1  0
 17 18  1  0
 17 19  1  0
 17 21  1  0
 17 22  1  0
 18 20  2  0
 18 26  1  0
 20 24  1  0
 20 28  1  0
 23 27  1  0
 26 30  2  0
 27 29  1  0
 28 31  2  0
 29 33  2  0
 29 34  1  0
 30 31  1  0
 32 35  2  0
 32 36  1  0
 33 35  1  0
 34 36  2  0
M  END
$$$$
