
     RDKit          2D

 11 10  0  0  0  0  0  0  0  0999 V2000
   12.6221   -5.2526    0.0000 C   0  0  0  0  0  0  0  0  0  0  0  0
   13.3367   -4.8401    0.0000 P   0  0  0  0  0  0  0  0  0  0  0  0
   14.0511   -5.2526    0.0000 O   0  0  0  0  0  0  0  0  0  0  0  0
   13.3367   -4.0151    0.0000 O   0  0  0  0  0  0  0  0  0  0  0  0
   11.9076   -4.8402    0.0000 P   0  0  0  0  0  0  0  0  0  0  0  0
   11.1931   -5.2527    0.0000 O   0  0  0  0  0  0  0  0  0  0  0  0
   11.9076   -4.0152    0.0000 O   0  0  0  0  0  0  0  0  0  0  0  0
   12.2096   -5.9671    0.0000 C   0  0  0  0  0  0  0  0  0  0  0  0
   13.0345   -5.9671    0.0000 O   0  0  0  0  0  0  0  0  0  0  0  0
   14.0512   -4.4276    0.0000 O   0  0  0  0  0  0  0  0  0  0  0  0
   11.1931   -4.4277    0.0000 O   0  0  0  0  0  0  0  0  0  0  0  0
  1  2  1  0
  2  3  1  0
  2  4  2  0
  1  5  1  0
  5  6  1  0
  5  7  2  0
  1  8  1  0
  9  1  1  0
  2 10  1  0
  5 11  1  0
M  END
$$$$
