1359
     RDKit          2D

 21 22  0  0  1  0  0  0  0  0999 V2000
    5.9370   -0.2223    0.0000 O   0  0  0  0  0  0  0  0  0  0  0  0
    4.5080    0.6028    0.0000 O   0  0  0  0  0  0  0  0  0  0  0  0
    3.0791   -0.2223    0.0000 N   0  0  0  0  0  0  0  0  0  0  0  0
    7.3659    0.6028    0.0000 C   0  0  0  0  0  0  0  0  0  0  0  0
    8.0334    1.0877    0.0000 C   0  0  0  0  0  0  0  0  0  0  0  0
    6.6985    1.0877    0.0000 C   0  0  0  0  0  0  0  0  0  0  0  0
    7.7784    1.8723    0.0000 C   0  0  0  0  0  0  0  0  0  0  0  0
    6.9534    1.8723    0.0000 C   0  0  0  0  0  0  0  0  0  0  0  0
    7.3659   -0.2223    0.0000 C   0  0  0  0  0  0  0  0  0  0  0  0
    6.6515   -0.6348    0.0000 C   0  0  0  0  0  0  0  0  0  0  0  0
    8.0804   -0.6348    0.0000 C   0  0  0  0  0  0  0  0  0  0  0  0
    2.3645   -0.6348    0.0000 C   0  0  0  0  0  0  0  0  0  0  0  0
    4.5080   -0.2223    0.0000 C   0  0  0  0  0  0  0  0  0  0  0  0
    3.7935   -0.6348    0.0000 C   0  0  0  0  0  0  0  0  0  0  0  0
    5.2224   -0.6348    0.0000 C   0  0  0  0  0  0  0  0  0  0  0  0
    6.6515   -1.4598    0.0000 C   0  0  0  0  0  0  0  0  0  0  0  0
    8.0804   -1.4598    0.0000 C   0  0  0  0  0  0  0  0  0  0  0  0
    2.7770   -1.3492    0.0000 C   0  0  0  0  0  0  0  0  0  0  0  0
    1.9520    0.0797    0.0000 C   0  0  0  0  0  0  0  0  0  0  0  0
    1.6500   -1.0473    0.0000 C   0  0  0  0  0  0  0  0  0  0  0  0
    7.3659   -1.8723    0.0000 C   0  0  0  0  0  0  0  0  0  0  0  0
  1 10  1  0
  1 15  1  0
 13  2  1  6
  3 12  1  0
  3 14  1  0
  4  5  1  0
  4  6  1  0
  4  9  1  0
  5  7  1  0
  6  8  1  0
  7  8  1  0
  9 10  2  0
  9 11  1  0
 10 16  1  0
 11 17  2  0
 12 18  1  0
 12 19  1  0
 12 20  1  0
 13 14  1  0
 13 15  1  0
 16 21  2  0
 17 21  1  0
M  END
$$$$
