
     RDKit          2D

 21 22  0  0  0  0  0  0  0  0999 V2000
   -1.3516    2.4750    0.0000 C   0  0  0  0  0  0  0  0  0  0  0  0
   -0.6372    3.7125    0.0000 C   0  0  0  0  0  0  0  0  0  0  0  0
   -2.0661    3.7125    0.0000 C   0  0  0  0  0  0  0  0  0  0  0  0
   -2.0661    2.0625    0.0000 C   0  0  0  0  0  0  0  0  0  0  0  0
   -0.6372    4.5375    0.0000 C   0  0  0  0  0  0  0  0  0  0  0  0
   -2.0661    4.5375    0.0000 C   0  0  0  0  0  0  0  0  0  0  0  0
   -2.7806    0.8250    0.0000 C   0  0  0  0  0  0  0  0  0  0  0  0
   -2.7806    0.0000    0.0000 C   0  0  0  0  0  0  0  0  0  0  0  0
   -1.3516    0.0000    0.0000 C   0  0  0  0  0  0  0  0  0  0  0  0
   -1.3516    3.3000    0.0000 C   0  0  0  0  0  0  0  0  0  0  0  0
   -2.0661    1.2375    0.0000 C   0  0  0  0  0  0  0  0  0  0  0  0
   -1.3516    4.9500    0.0000 C   0  0  0  0  0  0  0  0  0  0  0  0
   -2.0661   -0.4125    0.0000 C   0  0  0  0  0  0  0  0  0  0  0  0
   -1.3516    0.8250    0.0000 C   0  0  0  0  0  0  0  0  0  0  0  0
   -1.3516    5.7750    0.0000 C   0  0  0  0  0  0  0  0  0  0  0  0
   -2.0661   -1.2375    0.0000 C   0  0  0  0  0  0  0  0  0  0  0  0
   -2.0661    6.1875    0.0000 N   0  0  0  0  0  0  0  0  0  0  0  0
   -0.6372    6.1875    0.0000 N   0  0  0  0  0  0  0  0  0  0  0  0
   -1.3516   -1.6500    0.0000 N   0  0  0  0  0  0  0  0  0  0  0  0
   -2.7806   -1.6500    0.0000 N   0  0  0  0  0  0  0  0  0  0  0  0
   -0.6372    1.2375    0.0000 O   0  0  0  0  0  0  0  0  0  0  0  0
  4  1  2  3
  5  2  2  0
  6  3  1  0
  8  7  2  0
 10  1  1  0
 10  2  1  0
 10  3  2  0
  4 11  1  0
 11  7  1  0
 12  5  1  0
 12  6  2  0
 13  8  1  0
 13  9  2  0
 14  9  1  0
 14 11  2  0
 15 12  1  0
 16 13  1  0
 17 15  1  0
 18 15  2  3
 19 16  2  3
 20 16  1  0
 21 14  1  0
M  END
$$$$
