1235
     RDKit          2D

 14 14  0  0  1  0  0  0  0  0999 V2000
    2.0930   -1.7779    0.0000 O   0  0  0  0  0  0  0  0  0  0  0  0
    4.9509    2.3472    0.0000 O   0  0  0  0  0  0  0  0  0  0  0  0
    3.5220   -2.6029    0.0000 O   0  0  0  0  0  0  0  0  0  0  0  0
    3.5220    2.3472    0.0000 O   0  0  0  0  0  0  0  0  0  0  0  0
    4.9509    0.6971    0.0000 N   0  0  0  0  0  0  0  0  0  0  0  0
    3.5220    0.6971    0.0000 C   0  0  0  0  0  0  0  0  0  0  0  0
    4.2365    1.1096    0.0000 C   0  0  0  0  0  0  0  0  0  0  0  0
    3.5220   -0.1279    0.0000 C   0  0  0  0  0  0  0  0  0  0  0  0
    2.8075   -0.5404    0.0000 C   0  0  0  0  0  0  0  0  0  0  0  0
    4.2365   -0.5404    0.0000 C   0  0  0  0  0  0  0  0  0  0  0  0
    2.8075   -1.3654    0.0000 C   0  0  0  0  0  0  0  0  0  0  0  0
    4.2365    1.9347    0.0000 C   0  0  0  0  0  0  0  0  0  0  0  0
    4.2365   -1.3654    0.0000 C   0  0  0  0  0  0  0  0  0  0  0  0
    3.5220   -1.7779    0.0000 C   0  0  0  0  0  0  0  0  0  0  0  0
  1 11  1  0
  2 12  1  0
  3 14  1  0
  4 12  2  0
  7  5  1  1
  6  7  1  0
  6  8  1  0
  7 12  1  0
  8  9  2  0
  8 10  1  0
  9 11  1  0
 10 13  2  0
 11 14  2  0
 13 14  1  0
M  END
$$$$
