1431
     RDKit          2D

 22 25  0  0  1  0  0  0  0  0999 V2000
    5.9104    1.6065    0.0000 O   0  0  0  0  0  0  0  0  0  0  0  0
    5.3833    0.5700    0.0000 C   0  0  0  0  0  0  0  0  0  0  0  0
    5.3833   -0.2550    0.0000 C   0  0  0  0  0  0  0  0  0  0  0  0
    4.6689   -0.6675    0.0000 C   0  0  0  0  0  0  0  0  0  0  0  0
    3.9544   -0.2550    0.0000 C   0  0  0  0  0  0  0  0  0  0  0  0
    6.1640    0.8214    0.0000 C   0  0  0  0  0  0  0  0  0  0  0  0
    4.6689    0.9825    0.0000 C   0  0  0  0  0  0  0  0  0  0  0  0
    6.1640   -0.5064    0.0000 C   0  0  0  0  0  0  0  0  0  0  0  0
    3.9544    0.5700    0.0000 C   0  0  0  0  0  0  0  0  0  0  0  0
    6.6455    0.1575    0.0000 C   0  0  0  0  0  0  0  0  0  0  0  0
    3.2036   -0.6731    0.0000 C   0  0  0  0  0  0  0  0  0  0  0  0
    4.6821   -1.5268    0.0000 C   0  0  0  0  0  0  0  0  0  0  0  0
    5.3833    1.3950    0.0000 C   0  0  0  0  0  0  0  0  0  0  0  0
    3.9412   -1.9622    0.0000 C   0  0  0  0  0  0  0  0  0  0  0  0
    3.1970   -1.5325    0.0000 C   0  0  0  0  0  0  0  0  0  0  0  0
    6.8323    1.3052    0.0000 C   0  0  0  0  0  0  0  0  0  0  0  0
    2.4389   -0.2078    0.0000 C   0  0  0  0  0  0  0  0  0  0  0  0
    1.6570   -0.6433    0.0000 C   0  0  0  0  0  0  0  0  0  0  0  0
    2.4252   -1.9861    0.0000 C   0  0  0  0  0  0  0  0  0  0  0  0
    1.6500   -1.5385    0.0000 C   0  0  0  0  0  0  0  0  0  0  0  0
    7.5854    0.9683    0.0000 C   0  0  0  0  0  0  0  0  0  0  0  0
    8.2537    1.4521    0.0000 C   0  0  0  0  0  0  0  0  0  0  0  0
  6  1  1  1
  2  3  1  0
  2  6  1  0
  2  7  1  0
  2 13  1  1
  3  4  1  0
  3  8  1  1
  4  5  1  0
  4 12  1  6
  5  9  1  1
  5 11  1  0
  6 10  1  0
  6 16  1  0
  7  9  1  0
  8 10  1  0
 11 15  1  0
 11 17  1  6
 12 14  1  0
 14 15  1  0
 15 19  2  0
 16 21  1  0
 17 18  1  0
 18 20  1  0
 19 20  1  0
 21 22  2  3
M  END
$$$$
