1207
     RDKit          2D

 26 27  0  0  0  0  0  0  0  0999 V2000
    6.7925   -2.4198    0.0000 F   0  0  0  0  0  0  0  0  0  0  0  0
    5.6655   -2.1178    0.0000 F   0  0  0  0  0  0  0  0  0  0  0  0
    5.9674   -0.9908    0.0000 F   0  0  0  0  0  0  0  0  0  0  0  0
    6.3799    0.7697    0.0000 O   0  0  0  0  0  0  0  0  0  0  0  0
    2.0930    0.7697    0.0000 O   0  0  0  0  0  0  0  0  0  0  0  0
    2.8075    2.0073    0.0000 O   0  0  0  0  0  0  0  0  0  0  0  0
    7.0944    1.1823    0.0000 N   0  0  0  0  0  0  0  0  0  0  0  0
    9.9524    1.1823    0.0000 N   0  0  0  0  0  0  0  0  0  0  0  0
    4.9509    0.7697    0.0000 C   0  0  0  0  0  0  0  0  0  0  0  0
    4.2365    1.1823    0.0000 C   0  0  0  0  0  0  0  0  0  0  0  0
    5.6655    1.1823    0.0000 C   0  0  0  0  0  0  0  0  0  0  0  0
    3.5220    0.7697    0.0000 C   0  0  0  0  0  0  0  0  0  0  0  0
    7.8089   -0.0553    0.0000 C   0  0  0  0  0  0  0  0  0  0  0  0
    7.8089    0.7697    0.0000 C   0  0  0  0  0  0  0  0  0  0  0  0
    7.0944   -0.4678    0.0000 C   0  0  0  0  0  0  0  0  0  0  0  0
    7.0944   -1.2928    0.0000 C   0  0  0  0  0  0  0  0  0  0  0  0
    8.5234    1.1823    0.0000 C   0  0  0  0  0  0  0  0  0  0  0  0
    8.5234   -0.4678    0.0000 C   0  0  0  0  0  0  0  0  0  0  0  0
    2.8075    1.1823    0.0000 C   0  0  0  0  0  0  0  0  0  0  0  0
    7.8089   -1.7053    0.0000 C   0  0  0  0  0  0  0  0  0  0  0  0
    8.5234   -1.2928    0.0000 C   0  0  0  0  0  0  0  0  0  0  0  0
    6.3799   -1.7053    0.0000 C   0  0  0  0  0  0  0  0  0  0  0  0
    8.5234    2.0073    0.0000 C   0  0  0  0  0  0  0  0  0  0  0  0
    9.2379    0.7697    0.0000 C   0  0  0  0  0  0  0  0  0  0  0  0
    9.2379    2.4198    0.0000 C   0  0  0  0  0  0  0  0  0  0  0  0
    9.9524    2.0073    0.0000 C   0  0  0  0  0  0  0  0  0  0  0  0
  1 22  1  0
  2 22  1  0
  3 22  1  0
  4  7  1  0
  4 11  1  0
  5 19  1  0
  6 19  2  0
  7 14  2  0
  8 24  2  0
  8 26  1  0
  9 10  1  0
  9 11  1  0
 10 12  1  0
 12 19  1  0
 13 14  1  0
 13 15  2  0
 13 18  1  0
 14 17  1  0
 15 16  1  0
 16 20  2  0
 16 22  1  0
 17 23  2  0
 17 24  1  0
 18 21  2  0
 20 21  1  0
 23 25  1  0
 25 26  2  0
M  END
$$$$
