1021
     RDKit          2D

 20 21  0  0  1  0  0  0  0  0999 V2000
    2.3641    1.7106    0.0000 Cl  0  0  0  0  0  0  0  0  0  0  0  0
    1.6498    0.4732    0.0000 Cl  0  0  0  0  0  0  0  0  0  0  0  0
    6.7049    0.9057    0.0000 Cl  0  0  0  0  0  0  0  0  0  0  0  0
    3.7929   -0.7641    0.0000 S   0  0  0  0  0  0  0  0  0  0  0  0
    6.7049   -0.7840    0.0000 S   0  0  0  0  0  0  0  0  0  0  0  0
    4.2053   -1.4784    0.0000 O   0  0  0  0  0  0  0  0  0  0  0  0
    3.3804   -1.4784    0.0000 O   0  0  0  0  0  0  0  0  0  0  0  0
    7.1200   -0.0712    0.0000 O   0  0  0  0  0  0  0  0  0  0  0  0
    6.2896   -1.4968    0.0000 O   0  0  0  0  0  0  0  0  0  0  0  0
    3.0786   -0.3517    0.0000 N   0  0  0  0  0  0  0  0  0  0  0  0
    3.7929    0.8857    0.0000 N   0  0  0  0  0  0  0  0  0  0  0  0
    7.4176   -1.1991    0.0000 N   0  0  0  0  0  0  0  0  0  0  0  0
    3.0786    0.4732    0.0000 C   0  0  0  0  0  0  0  0  0  0  0  0
    4.5073   -0.3517    0.0000 C   0  0  0  0  0  0  0  0  0  0  0  0
    4.5073    0.4732    0.0000 C   0  0  0  0  0  0  0  0  0  0  0  0
    5.2446   -0.7926    0.0000 C   0  0  0  0  0  0  0  0  0  0  0  0
    5.9921   -0.3689    0.0000 C   0  0  0  0  0  0  0  0  0  0  0  0
    2.3641    0.8857    0.0000 C   0  0  0  0  0  0  0  0  0  0  0  0
    5.2446    0.9143    0.0000 C   0  0  0  0  0  0  0  0  0  0  0  0
    5.9921    0.4904    0.0000 C   0  0  0  0  0  0  0  0  0  0  0  0
  1 18  1  0
  2 18  1  0
  3 20  1  0
  4  6  2  0
  4  7  2  0
  4 10  1  0
  4 14  1  0
  5  8  2  0
  5  9  2  0
  5 12  1  0
  5 17  1  0
 10 13  1  0
 11 13  1  0
 11 15  1  0
 13 18  1  0
 14 15  2  0
 14 16  1  0
 15 19  1  0
 16 17  2  0
 17 20  1  0
 19 20  2  0
M  END
$$$$
