
     RDKit          2D

 24 28  0  0  0  0  0  0  0  0999 V2000
   -0.7594    0.8250    0.0000 C   0  0  0  0  0  0  0  0  0  0  0  0
   -1.4739    0.4125    0.0000 C   0  0  0  0  0  0  0  0  0  0  0  0
   -1.4738    2.0625    0.0000 C   0  0  0  0  0  0  0  0  0  0  0  0
   -2.1883    1.6501    0.0000 C   0  0  0  0  0  0  0  0  0  0  0  0
   -2.1883    0.8250    0.0000 C   0  0  0  0  0  0  0  0  0  0  0  0
   -0.7594    1.6500    0.0000 C   0  0  0  0  0  0  0  0  0  0  0  0
   -2.1883   -0.8250    0.0000 C   0  0  0  0  0  0  0  0  0  0  0  0
   -2.1883   -1.6501    0.0000 C   0  0  0  0  0  0  0  0  0  0  0  0
   -1.4738   -2.0625    0.0000 C   0  0  0  0  0  0  0  0  0  0  0  0
   -0.7594   -1.6500    0.0000 C   0  0  0  0  0  0  0  0  0  0  0  0
   -0.0449   -0.4125    0.0000 C   0  0  0  0  0  0  0  0  0  0  0  0
    0.6695   -0.8250    0.0000 N   0  0  0  0  0  0  0  0  0  0  0  0
   -0.7594   -0.8250    0.0000 C   0  0  0  0  0  0  0  0  0  0  0  0
   -0.0449   -1.2374    0.0000 O   0  0  0  0  0  0  0  0  0  0  0  0
   -0.0450    0.4125    0.0000 C   0  0  0  0  0  0  0  0  0  0  0  0
   -1.4739   -0.4125    0.0000 C   0  0  0  0  0  0  0  0  0  0  0  0
   -0.7594    0.0000    0.0000 C   0  0  0  0  0  0  0  0  0  0  0  0
    0.6840    0.0000    0.0000 C   0  0  0  0  0  0  0  0  0  0  0  0
   -2.9028   -2.0626    0.0000 O   0  0  0  0  0  0  0  0  0  0  0  0
   -2.7215    0.0410    0.0000 O   0  0  0  0  0  0  0  0  0  0  0  0
   -2.9028    2.0626    0.0000 O   0  0  0  0  0  0  0  0  0  0  0  0
    1.4945   -0.8250    0.0000 C   0  0  0  0  0  0  0  0  0  0  0  0
    2.0779   -1.4084    0.0000 C   0  0  0  0  0  0  0  0  0  0  0  0
    2.9029   -1.4084    0.0000 C   0  0  0  0  0  0  0  0  0  0  0  0
 13 11  1  0
 15  1  1  0
  2 16  1  0
  1  6  2  0
  2  1  1  0
  5  2  2  0
  3  4  2  0
  3  6  1  0
  4  5  1  0
 10 13  1  0
 16 13  1  0
 16  7  1  0
  7  8  1  0
  8  9  1  0
  9 10  1  0
 11 12  1  0
 12 18  1  0
 13 14  1  1
 11 15  1  1
 16 17  1  1
 17 18  1  0
  8 19  2  0
  5 20  1  0
  7 20  1  6
  4 21  1  0
 12 22  1  0
 22 23  1  0
 23 24  2  3
M  END
$$$$
