1624
     RDKit          2D

 27 30  0  0  0  0  0  0  0  0999 V2000
    6.7619   -1.8715    0.0000 Cl  0  0  0  0  0  0  0  0  0  0  0  0
    3.8495   -3.5415    0.0000 S   0  0  0  0  0  0  0  0  0  0  0  0
    8.1363    3.0585    0.0000 O   0  0  0  0  0  0  0  0  0  0  0  0
    5.2784    0.5835    0.0000 N   0  0  0  0  0  0  0  0  0  0  0  0
    6.7073    1.4085    0.0000 N   0  0  0  0  0  0  0  0  0  0  0  0
    5.2784    1.4085    0.0000 C   0  0  0  0  0  0  0  0  0  0  0  0
    5.9929    0.1710    0.0000 C   0  0  0  0  0  0  0  0  0  0  0  0
    5.9929    1.8210    0.0000 C   0  0  0  0  0  0  0  0  0  0  0  0
    6.7073    0.5835    0.0000 C   0  0  0  0  0  0  0  0  0  0  0  0
    4.5640    0.1710    0.0000 C   0  0  0  0  0  0  0  0  0  0  0  0
    7.4219    1.8210    0.0000 C   0  0  0  0  0  0  0  0  0  0  0  0
    4.5640   -0.6540    0.0000 C   0  0  0  0  0  0  0  0  0  0  0  0
    7.4219    2.6460    0.0000 C   0  0  0  0  0  0  0  0  0  0  0  0
    3.8495   -1.0665    0.0000 C   0  0  0  0  0  0  0  0  0  0  0  0
    3.8495   -1.8915    0.0000 C   0  0  0  0  0  0  0  0  0  0  0  0
    4.5640   -2.3040    0.0000 C   0  0  0  0  0  0  0  0  0  0  0  0
    3.1350   -2.3040    0.0000 C   0  0  0  0  0  0  0  0  0  0  0  0
    4.5640   -3.1290    0.0000 C   0  0  0  0  0  0  0  0  0  0  0  0
    3.1350   -3.1290    0.0000 C   0  0  0  0  0  0  0  0  0  0  0  0
    5.3015   -1.8629    0.0000 C   0  0  0  0  0  0  0  0  0  0  0  0
    2.3975   -1.8629    0.0000 C   0  0  0  0  0  0  0  0  0  0  0  0
    5.3015   -3.5700    0.0000 C   0  0  0  0  0  0  0  0  0  0  0  0
    2.3975   -3.5700    0.0000 C   0  0  0  0  0  0  0  0  0  0  0  0
    6.0490   -2.2868    0.0000 C   0  0  0  0  0  0  0  0  0  0  0  0
    1.6500   -2.2868    0.0000 C   0  0  0  0  0  0  0  0  0  0  0  0
    6.0490   -3.1461    0.0000 C   0  0  0  0  0  0  0  0  0  0  0  0
    1.6500   -3.1461    0.0000 C   0  0  0  0  0  0  0  0  0  0  0  0
  1 24  1  0
  2 18  1  0
  2 19  1  0
  3 13  1  0
  4  6  1  0
  4  7  1  0
  4 10  1  0
  5  8  1  0
  5  9  1  0
  5 11  1  0
  6  8  1  0
  7  9  1  0
 10 12  1  0
 11 13  1  0
 12 14  1  0
 14 15  2  0
 15 16  1  0
 15 17  1  0
 16 18  2  0
 16 20  1  0
 17 19  2  0
 17 21  1  0
 18 22  1  0
 19 23  1  0
 20 24  2  0
 21 25  2  0
 22 26  2  0
 23 27  2  0
 24 26  1  0
 25 27  1  0
M  END
$$$$
