1382
     RDKit          2D

 21 22  0  0  0  0  0  0  0  0999 V2000
    3.7935    2.2688    0.0000 S   0  0  0  0  0  0  0  0  0  0  0  0
    3.0791   -1.4438    0.0000 O   0  0  0  0  0  0  0  0  0  0  0  0
    4.2060    1.5543    0.0000 O   0  0  0  0  0  0  0  0  0  0  0  0
    3.3810    2.9833    0.0000 O   0  0  0  0  0  0  0  0  0  0  0  0
    1.6500   -3.0938    0.0000 O   0  0  0  0  0  0  0  0  0  0  0  0
    3.0791    1.8563    0.0000 N   0  0  0  0  0  0  0  0  0  0  0  0
    3.7935    0.6188    0.0000 N   0  0  0  0  0  0  0  0  0  0  0  0
    2.3645    0.6188    0.0000 N   0  0  0  0  0  0  0  0  0  0  0  0
    4.5080    2.6813    0.0000 C   0  0  0  0  0  0  0  0  0  0  0  0
    4.5080    3.5063    0.0000 C   0  0  0  0  0  0  0  0  0  0  0  0
    5.2224    2.2688    0.0000 C   0  0  0  0  0  0  0  0  0  0  0  0
    3.0791    1.0313    0.0000 C   0  0  0  0  0  0  0  0  0  0  0  0
    2.3645   -1.8563    0.0000 C   0  0  0  0  0  0  0  0  0  0  0  0
    5.2224    3.9188    0.0000 C   0  0  0  0  0  0  0  0  0  0  0  0
    5.9370    2.6813    0.0000 C   0  0  0  0  0  0  0  0  0  0  0  0
    3.0791   -0.6188    0.0000 C   0  0  0  0  0  0  0  0  0  0  0  0
    5.9370    3.5063    0.0000 C   0  0  0  0  0  0  0  0  0  0  0  0
    2.3645   -2.6813    0.0000 C   0  0  0  0  0  0  0  0  0  0  0  0
    3.7935   -0.2063    0.0000 C   0  0  0  0  0  0  0  0  0  0  0  0
    2.3645   -0.2063    0.0000 C   0  0  0  0  0  0  0  0  0  0  0  0
    1.6500   -3.9188    0.0000 C   0  0  0  0  0  0  0  0  0  0  0  0
  1  3  2  0
  1  4  2  0
  1  6  1  0
  1  9  1  0
  2 13  1  0
  2 16  1  0
  5 18  1  0
  5 21  1  0
  6 12  1  0
  7 12  2  0
  7 19  1  0
  8 12  1  0
  8 20  2  0
  9 10  2  0
  9 11  1  0
 10 14  1  0
 11 15  2  0
 13 18  1  0
 14 17  2  0
 15 17  1  0
 16 19  2  0
 16 20  1  0
M  END
$$$$
