1428
     RDKit          2D

 17 18  0  0  0  0  0  0  0  0999 V2000
    3.5220   -2.2688    0.0000 O   0  0  0  0  0  0  0  0  0  0  0  0
    2.0930    0.2063    0.0000 O   0  0  0  0  0  0  0  0  0  0  0  0
    2.8075    1.4438    0.0000 O   0  0  0  0  0  0  0  0  0  0  0  0
    3.5220    0.2063    0.0000 C   0  0  0  0  0  0  0  0  0  0  0  0
    3.5220    1.0313    0.0000 C   0  0  0  0  0  0  0  0  0  0  0  0
    4.2365    1.4438    0.0000 C   0  0  0  0  0  0  0  0  0  0  0  0
    2.8075   -0.2063    0.0000 C   0  0  0  0  0  0  0  0  0  0  0  0
    4.2365   -0.2063    0.0000 C   0  0  0  0  0  0  0  0  0  0  0  0
    3.5220   -1.4438    0.0000 C   0  0  0  0  0  0  0  0  0  0  0  0
    2.8075   -1.0313    0.0000 C   0  0  0  0  0  0  0  0  0  0  0  0
    4.2365   -1.0313    0.0000 C   0  0  0  0  0  0  0  0  0  0  0  0
    4.2365    2.2688    0.0000 C   0  0  0  0  0  0  0  0  0  0  0  0
    4.9509    1.0313    0.0000 C   0  0  0  0  0  0  0  0  0  0  0  0
    4.9509    2.6813    0.0000 C   0  0  0  0  0  0  0  0  0  0  0  0
    5.6655    1.4438    0.0000 C   0  0  0  0  0  0  0  0  0  0  0  0
    5.6655    2.2688    0.0000 C   0  0  0  0  0  0  0  0  0  0  0  0
    4.2365   -2.6813    0.0000 C   0  0  0  0  0  0  0  0  0  0  0  0
  1  9  1  0
  1 17  1  0
  2  7  1  0
  3  5  2  0
  4  5  1  0
  4  7  2  0
  4  8  1  0
  5  6  1  0
  6 12  2  0
  6 13  1  0
  7 10  1  0
  8 11  2  0
  9 10  2  0
  9 11  1  0
 12 14  1  0
 13 15  2  0
 14 16  2  0
 15 16  1  0
M  END
$$$$
