1206
     RDKit          2D

 15 15  0  0  0  0  0  0  0  0999 V2000
    4.5080    2.6813    0.0000 Cl  0  0  0  0  0  0  0  0  0  0  0  0
    3.7935   -0.2063    0.0000 O   0  0  0  0  0  0  0  0  0  0  0  0
    2.3645    2.2688    0.0000 O   0  0  0  0  0  0  0  0  0  0  0  0
    2.3645   -0.2063    0.0000 N   0  0  0  0  0  0  0  0  0  0  0  0
    3.0791    1.0313    0.0000 N   0  0  0  0  0  0  0  0  0  0  0  0
    2.3645    1.4438    0.0000 N   0  0  0  0  0  0  0  0  0  0  0  0
    2.3645   -1.0313    0.0000 C   0  0  0  0  0  0  0  0  0  0  0  0
    1.6500   -1.4438    0.0000 C   0  0  0  0  0  0  0  0  0  0  0  0
    3.0791   -1.4438    0.0000 C   0  0  0  0  0  0  0  0  0  0  0  0
    1.6500   -2.2688    0.0000 C   0  0  0  0  0  0  0  0  0  0  0  0
    3.0791   -2.2688    0.0000 C   0  0  0  0  0  0  0  0  0  0  0  0
    2.3645   -2.6813    0.0000 C   0  0  0  0  0  0  0  0  0  0  0  0
    3.0791    0.2063    0.0000 C   0  0  0  0  0  0  0  0  0  0  0  0
    3.7935    1.4438    0.0000 C   0  0  0  0  0  0  0  0  0  0  0  0
    3.7935    2.2688    0.0000 C   0  0  0  0  0  0  0  0  0  0  0  0
  1 15  1  0
  2 13  2  0
  3  6  2  0
  4  7  1  0
  4 13  1  0
  5  6  1  0
  5 13  1  0
  5 14  1  0
  7  8  1  0
  7  9  1  0
  8 10  1  0
  9 11  1  0
 10 12  1  0
 11 12  1  0
 14 15  1  0
M  END
$$$$
