
     RDKit          2D

 24 25  0  0  0  0  0  0  0  0999 V2000
   10.1239    4.9501    0.0000 I   0  0  0  0  0  0  0  0  0  0  0  0
    7.2659    4.9501    0.0000 I   0  0  0  0  0  0  0  0  0  0  0  0
   10.1239    8.2502    0.0000 I   0  0  0  0  0  0  0  0  0  0  0  0
   11.5528    5.7751    0.0000 I   0  0  0  0  0  0  0  0  0  0  0  0
    8.6949    5.7751    0.0000 O   0  0  0  0  0  0  0  0  0  0  0  0
    7.2659    0.8250    0.0000 O   0  0  0  0  0  0  0  0  0  0  0  0
    8.6949    0.8250    0.0000 O   0  0  0  0  0  0  0  0  0  0  0  0
   11.5528    7.4252    0.0000 O   0  0  0  0  0  0  0  0  0  0  0  0
    7.2659    2.4751    0.0000 N   0  0  0  0  0  0  0  0  0  0  0  0
    8.6949    2.4751    0.0000 C   0  0  0  0  0  0  0  0  0  0  0  0
    7.9804    2.0625    0.0000 C   0  0  0  0  0  0  0  0  0  0  0  0
    8.6949    3.3001    0.0000 C   0  0  0  0  0  0  0  0  0  0  0  0
    7.9804    3.7126    0.0000 C   0  0  0  0  0  0  0  0  0  0  0  0
    9.4093    3.7126    0.0000 C   0  0  0  0  0  0  0  0  0  0  0  0
    8.6949    4.9501    0.0000 C   0  0  0  0  0  0  0  0  0  0  0  0
    9.4093    4.5376    0.0000 C   0  0  0  0  0  0  0  0  0  0  0  0
    7.9804    4.5376    0.0000 C   0  0  0  0  0  0  0  0  0  0  0  0
    7.9804    1.2375    0.0000 C   0  0  0  0  0  0  0  0  0  0  0  0
    9.4093    6.1876    0.0000 C   0  0  0  0  0  0  0  0  0  0  0  0
   10.1239    5.7751    0.0000 C   0  0  0  0  0  0  0  0  0  0  0  0
    9.4093    7.0127    0.0000 C   0  0  0  0  0  0  0  0  0  0  0  0
   10.1239    7.4252    0.0000 C   0  0  0  0  0  0  0  0  0  0  0  0
   10.8383    6.1876    0.0000 C   0  0  0  0  0  0  0  0  0  0  0  0
   10.8383    7.0127    0.0000 C   0  0  0  0  0  0  0  0  0  0  0  0
  1 16  1  0
  2 17  1  0
  3 22  1  0
  4 23  1  0
  5 15  1  0
  5 19  1  0
  6 18  1  0
  7 18  2  0
  8 24  1  0
 11  9  1  1
 10 11  1  0
 10 12  1  0
 11 18  1  0
 12 13  2  0
 12 14  1  0
 13 17  1  0
 14 16  2  0
 15 16  1  0
 15 17  2  0
 19 20  2  0
 19 21  1  0
 20 23  1  0
 21 22  2  0
 22 24  1  0
 23 24  2  0
M  CHG  1   6  -1
M  END
$$$$
