1246
     RDKit          2D

 21 23  0  0  1  0  0  0  0  0999 V2000
    3.6959   -2.3626    0.0000 S   0  0  0  0  0  0  0  0  0  0  0  0
    3.6959   -0.7784    0.0000 N   0  0  0  0  0  0  0  0  0  0  0  0
    5.0680    1.5979    0.0000 N   0  0  0  0  0  0  0  0  0  0  0  0
    4.3820    0.4097    0.0000 C   0  0  0  0  0  0  0  0  0  0  0  0
    3.6959    0.0137    0.0000 C   0  0  0  0  0  0  0  0  0  0  0  0
    4.3820    1.2019    0.0000 C   0  0  0  0  0  0  0  0  0  0  0  0
    5.0680    0.0137    0.0000 C   0  0  0  0  0  0  0  0  0  0  0  0
    4.3820   -1.1744    0.0000 C   0  0  0  0  0  0  0  0  0  0  0  0
    3.0100   -1.1744    0.0000 C   0  0  0  0  0  0  0  0  0  0  0  0
    4.3820   -1.9666    0.0000 C   0  0  0  0  0  0  0  0  0  0  0  0
    3.0100   -1.9666    0.0000 C   0  0  0  0  0  0  0  0  0  0  0  0
    5.0900   -0.7509    0.0000 C   0  0  0  0  0  0  0  0  0  0  0  0
    2.3019   -0.7509    0.0000 C   0  0  0  0  0  0  0  0  0  0  0  0
    5.0680    2.3900    0.0000 C   0  0  0  0  0  0  0  0  0  0  0  0
    5.7539    1.2019    0.0000 C   0  0  0  0  0  0  0  0  0  0  0  0
    5.0900   -2.3900    0.0000 C   0  0  0  0  0  0  0  0  0  0  0  0
    2.3019   -2.3900    0.0000 C   0  0  0  0  0  0  0  0  0  0  0  0
    5.8078   -1.1580    0.0000 C   0  0  0  0  0  0  0  0  0  0  0  0
    1.5842   -1.1580    0.0000 C   0  0  0  0  0  0  0  0  0  0  0  0
    5.8078   -1.9831    0.0000 C   0  0  0  0  0  0  0  0  0  0  0  0
    1.5842   -1.9831    0.0000 C   0  0  0  0  0  0  0  0  0  0  0  0
  1 10  1  0
  1 11  1  0
  2  5  1  0
  2  8  1  0
  2  9  1  0
  3  6  1  0
  3 14  1  0
  3 15  1  0
  4  5  1  0
  4  6  1  0
  4  7  1  0
  8 10  2  0
  8 12  1  0
  9 11  2  0
  9 13  1  0
 10 16  1  0
 11 17  1  0
 12 18  2  0
 13 19  2  0
 16 20  2  0
 17 21  2  0
 18 20  1  0
 19 21  1  0
M  END
$$$$
