1217
     RDKit          2D

 22 23  0  0  0  0  0  0  0  0999 V2000
    5.9370   -1.8403    0.0000 N   0  0  0  0  0  0  0  0  0  0  0  0
    5.2695   -2.3252    0.0000 N   0  0  0  0  0  0  0  0  0  0  0  0
    1.6500   -1.8403    0.0000 N   0  0  0  0  0  0  0  0  0  0  0  0
    4.5080    3.1098    0.0000 N   0  0  0  0  0  0  0  0  0  0  0  0
    6.3495   -3.1098    0.0000 N   0  0  0  0  0  0  0  0  0  0  0  0
    3.0791   -1.0153    0.0000 C   0  0  0  0  0  0  0  0  0  0  0  0
    4.5080    1.4598    0.0000 C   0  0  0  0  0  0  0  0  0  0  0  0
    3.7935   -0.6028    0.0000 C   0  0  0  0  0  0  0  0  0  0  0  0
    4.5080    0.6348    0.0000 C   0  0  0  0  0  0  0  0  0  0  0  0
    3.7935    0.2223    0.0000 C   0  0  0  0  0  0  0  0  0  0  0  0
    5.2224   -0.6028    0.0000 C   0  0  0  0  0  0  0  0  0  0  0  0
    4.5080   -1.0153    0.0000 C   0  0  0  0  0  0  0  0  0  0  0  0
    5.2224    0.2223    0.0000 C   0  0  0  0  0  0  0  0  0  0  0  0
    5.9370   -1.0153    0.0000 C   0  0  0  0  0  0  0  0  0  0  0  0
    3.4916   -1.7297    0.0000 C   0  0  0  0  0  0  0  0  0  0  0  0
    2.6665   -0.3008    0.0000 C   0  0  0  0  0  0  0  0  0  0  0  0
    3.6830    1.4598    0.0000 C   0  0  0  0  0  0  0  0  0  0  0  0
    5.3330    1.4598    0.0000 C   0  0  0  0  0  0  0  0  0  0  0  0
    2.3645   -1.4278    0.0000 C   0  0  0  0  0  0  0  0  0  0  0  0
    4.5080    2.2848    0.0000 C   0  0  0  0  0  0  0  0  0  0  0  0
    6.6044   -2.3252    0.0000 C   0  0  0  0  0  0  0  0  0  0  0  0
    5.5245   -3.1098    0.0000 C   0  0  0  0  0  0  0  0  0  0  0  0
  1  2  1  0
  1 14  1  0
  1 21  1  0
  2 22  2  0
  3 19  3  0
  4 20  3  0
  5 21  2  0
  5 22  1  0
  6  8  1  0
  6 15  1  0
  6 16  1  0
  6 19  1  0
  7  9  1  0
  7 17  1  0
  7 18  1  0
  7 20  1  0
  8 10  2  0
  8 12  1  0
  9 10  1  0
  9 13  2  0
 11 12  2  0
 11 13  1  0
 11 14  1  0
M  END
$$$$
