1007
     RDKit          2D

 23 25  0  0  1  0  0  0  0  0999 V2000
    2.9557   -0.6862    0.0000 Cl  0  0  0  0  0  0  0  0  0  0  0  0
    4.3846   -3.1613    0.0000 Cl  0  0  0  0  0  0  0  0  0  0  0  0
    3.4826    3.1613    0.0000 Cl  0  0  0  0  0  0  0  0  0  0  0  0
    2.0625    2.7808    0.0000 S   0  0  0  0  0  0  0  0  0  0  0  0
    3.6702    0.5513    0.0000 O   0  0  0  0  0  0  0  0  0  0  0  0
    5.0992    1.3763    0.0000 N   0  0  0  0  0  0  0  0  0  0  0  0
    5.5117    2.6458    0.0000 N   0  0  0  0  0  0  0  0  0  0  0  0
    4.3846    0.1388    0.0000 C   0  0  0  0  0  0  0  0  0  0  0  0
    5.0992    0.5513    0.0000 C   0  0  0  0  0  0  0  0  0  0  0  0
    4.3846   -0.6862    0.0000 C   0  0  0  0  0  0  0  0  0  0  0  0
    3.6702    1.3763    0.0000 C   0  0  0  0  0  0  0  0  0  0  0  0
    3.6702   -1.0987    0.0000 C   0  0  0  0  0  0  0  0  0  0  0  0
    5.0992   -1.0987    0.0000 C   0  0  0  0  0  0  0  0  0  0  0  0
    4.4317    1.8612    0.0000 C   0  0  0  0  0  0  0  0  0  0  0  0
    2.9557    1.7888    0.0000 C   0  0  0  0  0  0  0  0  0  0  0  0
    5.7666    1.8612    0.0000 C   0  0  0  0  0  0  0  0  0  0  0  0
    3.6702   -1.9237    0.0000 C   0  0  0  0  0  0  0  0  0  0  0  0
    5.0992   -1.9237    0.0000 C   0  0  0  0  0  0  0  0  0  0  0  0
    4.3846   -2.3362    0.0000 C   0  0  0  0  0  0  0  0  0  0  0  0
    4.6867    2.6458    0.0000 C   0  0  0  0  0  0  0  0  0  0  0  0
    2.2020    1.4532    0.0000 C   0  0  0  0  0  0  0  0  0  0  0  0
    2.8694    2.6092    0.0000 C   0  0  0  0  0  0  0  0  0  0  0  0
    1.6500    2.0663    0.0000 C   0  0  0  0  0  0  0  0  0  0  0  0
  1 12  1  0
  2 19  1  0
  3 22  1  0
  4 22  1  0
  4 23  1  0
  5  8  1  0
  5 11  1  0
  6  9  1  0
  6 14  1  0
  6 16  1  0
  7 16  2  0
  7 20  1  0
  8  9  1  0
  8 10  1  0
 10 12  2  0
 10 13  1  0
 11 15  1  0
 12 17  1  0
 13 18  2  0
 14 20  2  0
 15 21  1  0
 15 22  2  0
 17 19  2  0
 18 19  1  0
 21 23  2  0
M  END
$$$$
