1020
     RDKit          2D

 13 14  0  0  1  0  0  0  0  0999 V2000
    3.2642   -1.0948    0.0000 O   0  0  0  0  0  0  0  0  0  0  0  0
    4.8296    0.2366    0.0000 O   0  0  0  0  0  0  0  0  0  0  0  0
    3.0092    1.0248    0.0000 O   0  0  0  0  0  0  0  0  0  0  0  0
    5.0858   -1.8755    0.0000 O   0  0  0  0  0  0  0  0  0  0  0  0
    1.9472    1.9810    0.0000 O   0  0  0  0  0  0  0  0  0  0  0  0
    1.6501    0.5832    0.0000 O   0  0  0  0  0  0  0  0  0  0  0  0
    2.2022    1.1963    0.0000 N   0  0  0  0  0  0  0  0  0  0  0  0
    4.0488   -0.0149    0.0000 C   0  0  0  0  0  0  0  0  0  0  0  0
    4.0488   -0.8399    0.0000 C   0  0  0  0  0  0  0  0  0  0  0  0
    3.2642    0.2402    0.0000 C   0  0  0  0  0  0  0  0  0  0  0  0
    4.8296   -1.0913    0.0000 C   0  0  0  0  0  0  0  0  0  0  0  0
    2.7792   -0.4274    0.0000 C   0  0  0  0  0  0  0  0  0  0  0  0
    5.3110   -0.4274    0.0000 C   0  0  0  0  0  0  0  0  0  0  0  0
  9  1  1  1
  1 12  1  0
  8  2  1  1
  2 13  1  0
  3  7  1  0
 10  3  1  1
 11  4  1  6
  5  7  1  0
  6  7  2  0
  8  9  1  0
  8 10  1  0
  9 11  1  0
 10 12  1  0
 11 13  1  0
M  CHG  2   5  -1   7   1
M  END
$$$$
