1619
     RDKit          2D

 20 23  0  0  1  0  0  0  0  0999 V2000
    5.8199   -1.2064    0.0000 N   0  0  0  0  0  0  0  0  0  0  0  0
    3.7350   -0.2790    0.0000 C   0  0  0  0  0  0  0  0  0  0  0  0
    4.4024   -0.7639    0.0000 C   0  0  0  0  0  0  0  0  0  0  0  0
    4.1474   -1.5485    0.0000 C   0  0  0  0  0  0  0  0  0  0  0  0
    5.2400   -0.5723    0.0000 C   0  0  0  0  0  0  0  0  0  0  0  0
    3.0675   -0.7639    0.0000 C   0  0  0  0  0  0  0  0  0  0  0  0
    4.7125   -2.1959    0.0000 C   0  0  0  0  0  0  0  0  0  0  0  0
    3.3225   -1.5485    0.0000 C   0  0  0  0  0  0  0  0  0  0  0  0
    5.5543   -2.0237    0.0000 C   0  0  0  0  0  0  0  0  0  0  0  0
    3.7350    0.5460    0.0000 C   0  0  0  0  0  0  0  0  0  0  0  0
    2.2298   -0.5723    0.0000 C   0  0  0  0  0  0  0  0  0  0  0  0
    2.7574   -2.1959    0.0000 C   0  0  0  0  0  0  0  0  0  0  0  0
    6.6262   -1.0319    0.0000 C   0  0  0  0  0  0  0  0  0  0  0  0
    3.0205    0.9584    0.0000 C   0  0  0  0  0  0  0  0  0  0  0  0
    4.4494    0.9584    0.0000 C   0  0  0  0  0  0  0  0  0  0  0  0
    1.6499   -1.2064    0.0000 C   0  0  0  0  0  0  0  0  0  0  0  0
    1.9155   -2.0237    0.0000 C   0  0  0  0  0  0  0  0  0  0  0  0
    3.0205    1.7834    0.0000 C   0  0  0  0  0  0  0  0  0  0  0  0
    4.4494    1.7834    0.0000 C   0  0  0  0  0  0  0  0  0  0  0  0
    3.7350    2.1959    0.0000 C   0  0  0  0  0  0  0  0  0  0  0  0
  1  5  1  0
  1  9  1  0
  1 13  1  0
  2  3  1  0
  2  6  1  0
  2 10  1  0
  3  4  2  0
  3  5  1  0
  4  7  1  0
  4  8  1  0
  6  8  2  0
  6 11  1  0
  7  9  1  0
  8 12  1  0
 10 14  2  0
 10 15  1  0
 11 16  2  0
 12 17  2  0
 14 18  1  0
 15 19  2  0
 16 17  1  0
 18 20  2  0
 19 20  1  0
M  END
$$$$
