1602
     RDKit          2D

 32 34  0  0  1  0  0  0  0  0999 V2000
    7.6202    2.5306    0.0000 S   0  0  0  0  0  0  0  0  0  0  0  0
    5.4215    0.8626    0.0000 O   0  0  0  0  0  0  0  0  0  0  0  0
    7.3231   -0.2020    0.0000 O   0  0  0  0  0  0  0  0  0  0  0  0
    8.6820    0.2396    0.0000 O   0  0  0  0  0  0  0  0  0  0  0  0
    4.4090    1.8553    0.0000 O   0  0  0  0  0  0  0  0  0  0  0  0
    7.0259   -1.5998    0.0000 O   0  0  0  0  0  0  0  0  0  0  0  0
    6.7288   -2.9975    0.0000 O   0  0  0  0  0  0  0  0  0  0  0  0
    8.0879   -2.5559    0.0000 O   0  0  0  0  0  0  0  0  0  0  0  0
    6.8355    1.4506    0.0000 N   0  0  0  0  0  0  0  0  0  0  0  0
    5.4215    2.8637    0.0000 N   0  0  0  0  0  0  0  0  0  0  0  0
    4.2572    4.0328    0.0000 N   0  0  0  0  0  0  0  0  0  0  0  0
    6.8355    2.2756    0.0000 C   0  0  0  0  0  0  0  0  0  0  0  0
    8.1050    1.8631    0.0000 C   0  0  0  0  0  0  0  0  0  0  0  0
    7.6202    1.1957    0.0000 C   0  0  0  0  0  0  0  0  0  0  0  0
    6.0037    2.2791    0.0000 C   0  0  0  0  0  0  0  0  0  0  0  0
    6.0037    1.4472    0.0000 C   0  0  0  0  0  0  0  0  0  0  0  0
    8.7725    2.3480    0.0000 C   0  0  0  0  0  0  0  0  0  0  0  0
    8.7725    1.3783    0.0000 C   0  0  0  0  0  0  0  0  0  0  0  0
    7.8751    0.4111    0.0000 C   0  0  0  0  0  0  0  0  0  0  0  0
    4.6242    2.6517    0.0000 C   0  0  0  0  0  0  0  0  0  0  0  0
    4.0420    3.2363    0.0000 C   0  0  0  0  0  0  0  0  0  0  0  0
    7.5780   -0.9866    0.0000 C   0  0  0  0  0  0  0  0  0  0  0  0
    3.2447    3.0244    0.0000 C   0  0  0  0  0  0  0  0  0  0  0  0
    8.3849   -1.1581    0.0000 C   0  0  0  0  0  0  0  0  0  0  0  0
    3.0295    2.2280    0.0000 C   0  0  0  0  0  0  0  0  0  0  0  0
    2.6625    3.6090    0.0000 C   0  0  0  0  0  0  0  0  0  0  0  0
    2.2322    2.0161    0.0000 C   0  0  0  0  0  0  0  0  0  0  0  0
    1.8652    3.3971    0.0000 C   0  0  0  0  0  0  0  0  0  0  0  0
    7.2809   -2.3844    0.0000 C   0  0  0  0  0  0  0  0  0  0  0  0
    1.6500    2.6007    0.0000 C   0  0  0  0  0  0  0  0  0  0  0  0
    6.9838   -3.7821    0.0000 C   0  0  0  0  0  0  0  0  0  0  0  0
    6.4317   -4.3952    0.0000 C   0  0  0  0  0  0  0  0  0  0  0  0
 12  1  1  1
  1 13  1  0
  2 16  2  0
  3 19  1  0
  3 22  1  0
  4 19  2  0
  5 20  2  0
  6 22  1  0
  6 29  1  0
  7 29  1  0
  7 31  1  0
  8 29  2  0
  9 12  1  0
  9 14  1  0
  9 16  1  0
 15 10  1  1
 10 20  1  0
 21 11  1  1
 12 15  1  0
 13 14  1  0
 13 17  1  0
 13 18  1  0
 14 19  1  6
 15 16  1  0
 20 21  1  0
 21 23  1  0
 22 24  1  0
 23 25  2  0
 23 26  1  0
 25 27  1  0
 26 28  2  0
 27 30  2  0
 28 30  1  0
 31 32  1  0
M  END
$$$$
