1656
     RDKit          2D

 26 28  0  0  0  0  0  0  0  0999 V2000
    7.4765    2.0625    0.0000 Cl  0  0  0  0  0  0  0  0  0  0  0  0
    4.6185    2.0625    0.0000 Cl  0  0  0  0  0  0  0  0  0  0  0  0
    6.7620   -2.4751    0.0000 F   0  0  0  0  0  0  0  0  0  0  0  0
    6.0475   -3.7126    0.0000 F   0  0  0  0  0  0  0  0  0  0  0  0
    3.9041   -1.6500    0.0000 O   0  0  0  0  0  0  0  0  0  0  0  0
    5.3330   -2.4751    0.0000 O   0  0  0  0  0  0  0  0  0  0  0  0
    4.6185    1.2375    0.0000 O   0  0  0  0  0  0  0  0  0  0  0  0
    6.0475    1.2375    0.0000 N   0  0  0  0  0  0  0  0  0  0  0  0
    6.0475    3.7126    0.0000 N   0  0  0  0  0  0  0  0  0  0  0  0
    2.4751   -1.6500    0.0000 C   0  0  0  0  0  0  0  0  0  0  0  0
    2.0625   -2.3645    0.0000 C   0  0  0  0  0  0  0  0  0  0  0  0
    1.6500   -1.6500    0.0000 C   0  0  0  0  0  0  0  0  0  0  0  0
    3.1895   -1.2375    0.0000 C   0  0  0  0  0  0  0  0  0  0  0  0
    4.6185   -1.2375    0.0000 C   0  0  0  0  0  0  0  0  0  0  0  0
    5.3330   -1.6500    0.0000 C   0  0  0  0  0  0  0  0  0  0  0  0
    4.6185   -0.4125    0.0000 C   0  0  0  0  0  0  0  0  0  0  0  0
    5.3330    0.0000    0.0000 C   0  0  0  0  0  0  0  0  0  0  0  0
    6.0475   -1.2375    0.0000 C   0  0  0  0  0  0  0  0  0  0  0  0
    6.0475   -0.4125    0.0000 C   0  0  0  0  0  0  0  0  0  0  0  0
    5.3330    0.8250    0.0000 C   0  0  0  0  0  0  0  0  0  0  0  0
    6.0475    2.0625    0.0000 C   0  0  0  0  0  0  0  0  0  0  0  0
    6.0475   -2.8876    0.0000 C   0  0  0  0  0  0  0  0  0  0  0  0
    6.7620    2.4751    0.0000 C   0  0  0  0  0  0  0  0  0  0  0  0
    5.3330    2.4751    0.0000 C   0  0  0  0  0  0  0  0  0  0  0  0
    6.7620    3.3001    0.0000 C   0  0  0  0  0  0  0  0  0  0  0  0
    5.3330    3.3001    0.0000 C   0  0  0  0  0  0  0  0  0  0  0  0
  1 23  1  0
  2 24  1  0
  3 22  1  0
  4 22  1  0
  5 13  1  0
  5 14  1  0
  6 15  1  0
  6 22  1  0
  7 20  2  0
  8 20  1  0
  8 21  1  0
  9 25  2  0
  9 26  1  0
 10 11  1  0
 10 12  1  0
 10 13  1  0
 11 12  1  0
 14 15  2  0
 14 16  1  0
 15 18  1  0
 16 17  2  0
 17 19  1  0
 17 20  1  0
 18 19  2  0
 21 23  2  0
 21 24  1  0
 23 25  1  0
 24 26  2  0
M  END
$$$$
