1103
     RDKit          2D

 28 30  0  0  1  0  0  0  0  0999 V2000
    2.3097   -3.3052    0.0000 Cl  0  0  0  0  0  0  0  0  0  0  0  0
    8.1336   -1.6156    0.0000 O   0  0  0  0  0  0  0  0  0  0  0  0
    3.0786    2.0765    0.0000 N   0  0  0  0  0  0  0  0  0  0  0  0
    5.2216   -0.8106    0.0000 N   0  0  0  0  0  0  0  0  0  0  0  0
    5.2216   -3.2853    0.0000 N   0  0  0  0  0  0  0  0  0  0  0  0
    4.5073   -0.3981    0.0000 C   0  0  0  0  0  0  0  0  0  0  0  0
    4.5073    0.4267    0.0000 C   0  0  0  0  0  0  0  0  0  0  0  0
    3.7929    0.8392    0.0000 C   0  0  0  0  0  0  0  0  0  0  0  0
    3.7929    1.6641    0.0000 C   0  0  0  0  0  0  0  0  0  0  0  0
    5.2216   -1.6355    0.0000 C   0  0  0  0  0  0  0  0  0  0  0  0
    3.7929   -0.8106    0.0000 C   0  0  0  0  0  0  0  0  0  0  0  0
    3.0786    2.9014    0.0000 C   0  0  0  0  0  0  0  0  0  0  0  0
    2.3641    1.6641    0.0000 C   0  0  0  0  0  0  0  0  0  0  0  0
    5.9361   -2.0479    0.0000 C   0  0  0  0  0  0  0  0  0  0  0  0
    4.5073   -2.0479    0.0000 C   0  0  0  0  0  0  0  0  0  0  0  0
    5.9361   -2.8728    0.0000 C   0  0  0  0  0  0  0  0  0  0  0  0
    4.5073   -2.8728    0.0000 C   0  0  0  0  0  0  0  0  0  0  0  0
    2.3641    3.3139    0.0000 C   0  0  0  0  0  0  0  0  0  0  0  0
    1.6498    2.0765    0.0000 C   0  0  0  0  0  0  0  0  0  0  0  0
    6.6734   -1.6069    0.0000 C   0  0  0  0  0  0  0  0  0  0  0  0
    3.7699   -1.6069    0.0000 C   0  0  0  0  0  0  0  0  0  0  0  0
    6.6734   -3.3139    0.0000 C   0  0  0  0  0  0  0  0  0  0  0  0
    3.7699   -3.3139    0.0000 C   0  0  0  0  0  0  0  0  0  0  0  0
    7.4209   -2.0308    0.0000 C   0  0  0  0  0  0  0  0  0  0  0  0
    7.4209   -2.8900    0.0000 C   0  0  0  0  0  0  0  0  0  0  0  0
    3.0225   -2.0308    0.0000 C   0  0  0  0  0  0  0  0  0  0  0  0
    3.0225   -2.8900    0.0000 C   0  0  0  0  0  0  0  0  0  0  0  0
    8.8496   -2.0252    0.0000 C   0  0  0  0  0  0  0  0  0  0  0  0
  1 27  1  0
  2 24  1  0
  2 28  1  0
  3  9  1  0
  3 12  1  0
  3 13  1  0
  4  6  1  0
  4 10  1  0
  5 16  2  0
  5 17  1  0
  6  7  1  0
  6 11  1  0
  7  8  1  0
  8  9  1  0
 10 14  2  0
 10 15  1  0
 12 18  1  0
 13 19  1  0
 14 16  1  0
 14 20  1  0
 15 17  2  0
 15 21  1  0
 16 22  1  0
 17 23  1  0
 20 24  2  0
 21 26  2  0
 22 25  2  0
 23 27  2  0
 24 25  1  0
 26 27  1  0
M  END
$$$$
