1131
     RDKit          2D

 17 17  0  0  0  0  0  0  0  0999 V2000
    2.3645   -3.0154    0.0000 Cl  0  0  0  0  0  0  0  0  0  0  0  0
    4.5079    1.5221    0.0000 N   0  0  0  0  0  0  0  0  0  0  0  0
    2.3645    0.2846    0.0000 N   0  0  0  0  0  0  0  0  0  0  0  0
    3.0790    1.5221    0.0000 N   0  0  0  0  0  0  0  0  0  0  0  0
    3.7934    2.7596    0.0000 N   0  0  0  0  0  0  0  0  0  0  0  0
    3.7934    0.2846    0.0000 N   0  0  0  0  0  0  0  0  0  0  0  0
    5.2223    1.9346    0.0000 C   0  0  0  0  0  0  0  0  0  0  0  0
    5.2223    2.7596    0.0000 C   0  0  0  0  0  0  0  0  0  0  0  0
    5.9369    1.5221    0.0000 C   0  0  0  0  0  0  0  0  0  0  0  0
    2.3645   -0.5404    0.0000 C   0  0  0  0  0  0  0  0  0  0  0  0
    3.7934    1.9346    0.0000 C   0  0  0  0  0  0  0  0  0  0  0  0
    3.0790   -0.9529    0.0000 C   0  0  0  0  0  0  0  0  0  0  0  0
    1.6500   -0.9529    0.0000 C   0  0  0  0  0  0  0  0  0  0  0  0
    3.0790    0.6971    0.0000 C   0  0  0  0  0  0  0  0  0  0  0  0
    3.0790   -1.7779    0.0000 C   0  0  0  0  0  0  0  0  0  0  0  0
    1.6500   -1.7779    0.0000 C   0  0  0  0  0  0  0  0  0  0  0  0
    2.3645   -2.1904    0.0000 C   0  0  0  0  0  0  0  0  0  0  0  0
  1 17  1  0
  2  7  1  0
  2 11  2  0
  3 10  1  0
  3 14  1  0
  4 11  1  0
  4 14  2  3
  5 11  1  0
  6 14  1  0
  7  8  1  0
  7  9  1  0
 10 12  2  0
 10 13  1  0
 12 15  1  0
 13 16  2  0
 15 17  2  0
 16 17  1  0
M  END
$$$$
