
     RDKit          2D

 12 13  0  0  0  0  0  0  0  0999 V2000
   -0.4184   -0.0308    0.0000 C   0  0  0  0  0  0  0  0  0  0  0  0
    0.3052   -0.4424    0.0000 C   0  0  0  0  0  0  0  0  0  0  0  0
   -0.4218    0.7888    0.0000 C   0  0  0  0  0  0  0  0  0  0  0  0
   -1.1248   -0.4424    0.0000 C   0  0  0  0  0  0  0  0  0  0  0  0
    1.0083   -0.0343    0.0000 O   0  0  0  0  0  0  0  0  0  0  0  0
    0.3052   -1.2689    0.0000 C   0  0  0  0  0  0  0  0  0  0  0  0
    0.2950    1.2003    0.0000 O   0  0  0  0  0  0  0  0  0  0  0  0
   -1.1317    1.1968    0.0000 O   0  0  0  0  0  0  0  0  0  0  0  0
   -1.1248   -1.2689    0.0000 C   0  0  0  0  0  0  0  0  0  0  0  0
    1.0083    0.7888    0.0000 Bi  0  0  0  0  0  3  0  0  0  0  0  0
   -0.4184   -1.6872    0.0000 C   0  0  0  0  0  0  0  0  0  0  0  0
    1.7182    1.2003    0.0000 O   0  0  0  0  0  0  0  0  0  0  0  0
  1  2  2  0
  1  3  1  0
  1  4  1  0
  2  5  1  0
  2  6  1  0
  3  7  1  0
  3  8  2  0
  4  9  2  0
  5 10  1  0
  6 11  2  0
 10 12  1  0
  7 10  1  0
  9 11  1  0
M  END
$$$$
