
     RDKit          2D

 24 24  0  0  1  0  0  0  0  0999 V2000
    5.8263   -6.1809    0.0000 C   0  0  0  0  0  0  0  0  0  0  0  0
    5.4138   -6.8954    0.0000 C   0  0  0  0  0  0  0  0  0  0  0  0
    6.2388   -6.8954    0.0000 C   0  0  0  0  0  0  0  0  0  0  0  0
    5.8263   -5.3559    0.0000 C   0  0  0  0  0  0  0  0  0  0  0  0
    6.5408   -4.9434    0.0000 N   0  0  0  0  0  0  0  0  0  0  0  0
    6.5408   -4.1184    0.0000 C   0  0  0  0  0  0  0  0  0  0  0  0
    5.8263   -3.7059    0.0000 C   0  0  0  0  0  0  0  0  0  0  0  0
   12.9710   -3.7059    0.0000 C   0  0  0  0  0  0  0  0  0  0  0  0
   12.2566   -4.1184    0.0000 C   0  0  0  0  0  0  0  0  0  0  0  0
    5.1118   -4.9434    0.0000 O   0  0  0  0  0  0  0  0  0  0  0  0
    5.8263   -2.8809    0.0000 O   0  0  0  0  0  0  0  0  0  0  0  0
   12.9710   -2.8809    0.0000 O   0  0  0  0  0  0  0  0  0  0  0  0
    7.2552   -3.7059    0.0000 C   0  0  0  0  0  0  0  0  0  0  0  0
   12.2566   -4.9434    0.0000 N   0  0  0  0  0  0  0  0  0  0  0  0
    5.1118   -4.1184    0.0000 O   0  0  0  0  0  0  0  0  0  0  0  0
   13.6855   -4.1184    0.0000 O   0  0  0  0  0  0  0  0  0  0  0  0
    4.5888   -6.8954    0.0000 C   0  0  0  0  0  0  0  0  0  0  0  0
    5.0013   -7.6099    0.0000 C   0  0  0  0  0  0  0  0  0  0  0  0
   10.8276   -4.1184    0.0000 S   0  0  0  0  0  0  0  0  0  0  0  0
   11.5421   -3.7059    0.0000 C   0  0  0  0  0  0  0  0  0  0  0  0
    7.9697   -4.1184    0.0000 C   0  0  0  0  0  0  0  0  0  0  0  0
   10.1131   -3.7059    0.0000 C   0  0  0  0  0  0  0  0  0  0  0  0
    8.6842   -3.7059    0.0000 C   0  0  0  0  0  0  0  0  0  0  0  0
    9.3986   -4.1184    0.0000 C   0  0  0  0  0  0  0  0  0  0  0  0
  2  1  1  0
  3  1  1  0
  1  4  1  1
  5  4  1  0
  6  5  1  0
  7  6  1  0
  8  9  1  0
  9 20  1  0
 10  4  2  0
 11  7  2  0
 12  8  2  0
 13  6  2  0
  9 14  1  1
 15  7  1  0
 16  8  1  0
 17  2  1  0
 18  2  1  0
 19 22  1  0
 20 19  1  0
 21 13  1  0
 22 24  1  0
 23 21  1  0
 24 23  1  0
  2  3  1  0
M  END
$$$$
