
     RDKit          2D

 25 25  0  0  0  0  0  0  0  0999 V2000
    4.5227    0.4673    0.0000 O   0  0  0  0  0  0  0  0  0  0  0  0
    6.8723    2.1743    0.0000 O   0  0  0  0  0  0  0  0  0  0  0  0
    5.4202    4.8794    0.0000 O   0  0  0  0  0  0  0  0  0  0  0  0
    0.4865    4.8081    0.0000 O   0  0  0  0  0  0  0  0  0  0  0  0
    0.0449    3.4491    0.0000 O   0  0  0  0  0  0  0  0  0  0  0  0
    4.7528    1.9194    0.0000 C   0  0  0  0  0  0  0  0  0  0  0  0
    5.4202    2.4044    0.0000 C   0  0  0  0  0  0  0  0  0  0  0  0
    5.0077    1.1347    0.0000 C   0  0  0  0  0  0  0  0  0  0  0  0
    6.0876    1.9194    0.0000 C   0  0  0  0  0  0  0  0  0  0  0  0
    5.8327    1.1347    0.0000 C   0  0  0  0  0  0  0  0  0  0  0  0
    3.9681    2.1743    0.0000 C   0  0  0  0  0  0  0  0  0  0  0  0
    5.4202    3.2294    0.0000 C   0  0  0  0  0  0  0  0  0  0  0  0
    3.3550    1.6223    0.0000 C   0  0  0  0  0  0  0  0  0  0  0  0
    6.1347    3.6419    0.0000 C   0  0  0  0  0  0  0  0  0  0  0  0
    6.1347    4.4669    0.0000 C   0  0  0  0  0  0  0  0  0  0  0  0
    2.5703    1.8772    0.0000 C   0  0  0  0  0  0  0  0  0  0  0  0
    6.8491    4.8794    0.0000 C   0  0  0  0  0  0  0  0  0  0  0  0
    2.3988    2.6842    0.0000 C   0  0  0  0  0  0  0  0  0  0  0  0
    6.8491    5.7044    0.0000 C   0  0  0  0  0  0  0  0  0  0  0  0
    1.6141    2.9391    0.0000 C   0  0  0  0  0  0  0  0  0  0  0  0
    7.5637    6.1169    0.0000 C   0  0  0  0  0  0  0  0  0  0  0  0
    7.5637    6.9420    0.0000 C   0  0  0  0  0  0  0  0  0  0  0  0
    1.4426    3.7462    0.0000 C   0  0  0  0  0  0  0  0  0  0  0  0
    8.2781    7.3545    0.0000 C   0  0  0  0  0  0  0  0  0  0  0  0
    0.6580    4.0011    0.0000 C   0  0  0  0  0  0  0  0  0  0  0  0
  8  1  1  6
  9  2  1  6
 15  3  1  1
  4 25  1  0
  5 25  2  0
  6  7  1  0
  6  8  1  0
  6 11  1  6
  7  9  1  0
  7 12  1  1
  8 10  1  0
  9 10  1  0
 11 13  1  0
 12 14  2  0
 13 16  2  0
 14 15  1  0
 15 17  1  0
 16 18  1  0
 17 19  1  0
 18 20  1  0
 19 21  1  0
 20 23  1  0
 21 22  1  0
 22 24  1  0
 23 25  1  0
M  END
$$$$
