1319
     RDKit          2D

 39 41  0  0  1  0  0  0  0  0999 V2000
    3.7935   -1.1931    0.0000 S   0  0  0  0  0  0  0  0  0  0  0  0
    3.3810    1.9964    0.0000 P   0  0  0  0  0  0  0  0  0  0  0  0
    3.7935    1.2819    0.0000 O   0  0  0  0  0  0  0  0  0  0  0  0
    5.9370    3.3445    0.0000 O   0  0  0  0  0  0  0  0  0  0  0  0
    7.5447    4.7490    0.0000 O   0  0  0  0  0  0  0  0  0  0  0  0
    4.6185   -1.1931    0.0000 O   0  0  0  0  0  0  0  0  0  0  0  0
    2.9685   -1.1931    0.0000 O   0  0  0  0  0  0  0  0  0  0  0  0
    2.9685    2.7108    0.0000 O   0  0  0  0  0  0  0  0  0  0  0  0
    2.6665    1.5839    0.0000 O   0  0  0  0  0  0  0  0  0  0  0  0
    6.6515    2.1069    0.0000 O   0  0  0  0  0  0  0  0  0  0  0  0
    4.0955    2.4089    0.0000 O   0  0  0  0  0  0  0  0  0  0  0  0
    3.7935   -0.3681    0.0000 N   0  0  0  0  0  0  0  0  0  0  0  0
    5.2224    2.1069    0.0000 N   0  0  0  0  0  0  0  0  0  0  0  0
    3.7935   -4.4932    0.0000 N   0  0  0  0  0  0  0  0  0  0  0  0
    4.5080    0.8694    0.0000 C   0  0  0  0  0  0  0  0  0  0  0  0
    5.2224    1.2819    0.0000 C   0  0  0  0  0  0  0  0  0  0  0  0
    4.5080    0.0444    0.0000 C   0  0  0  0  0  0  0  0  0  0  0  0
    3.0791    0.0444    0.0000 C   0  0  0  0  0  0  0  0  0  0  0  0
    5.9370    0.8694    0.0000 C   0  0  0  0  0  0  0  0  0  0  0  0
    2.3645   -0.3681    0.0000 C   0  0  0  0  0  0  0  0  0  0  0  0
    5.9370    0.0444    0.0000 C   0  0  0  0  0  0  0  0  0  0  0  0
    6.6515    3.7570    0.0000 C   0  0  0  0  0  0  0  0  0  0  0  0
    3.7935   -2.0182    0.0000 C   0  0  0  0  0  0  0  0  0  0  0  0
    1.6500    0.0444    0.0000 C   0  0  0  0  0  0  0  0  0  0  0  0
    2.3645   -1.1931    0.0000 C   0  0  0  0  0  0  0  0  0  0  0  0
    7.4051    3.4214    0.0000 C   0  0  0  0  0  0  0  0  0  0  0  0
    5.9370    2.5194    0.0000 C   0  0  0  0  0  0  0  0  0  0  0  0
    6.7377    4.5774    0.0000 C   0  0  0  0  0  0  0  0  0  0  0  0
    7.9572    4.0345    0.0000 C   0  0  0  0  0  0  0  0  0  0  0  0
    5.2224   -0.3681    0.0000 C   0  0  0  0  0  0  0  0  0  0  0  0
    6.6515   -0.3681    0.0000 C   0  0  0  0  0  0  0  0  0  0  0  0
    3.0791   -2.4307    0.0000 C   0  0  0  0  0  0  0  0  0  0  0  0
    4.5080   -2.4307    0.0000 C   0  0  0  0  0  0  0  0  0  0  0  0
    5.2224   -1.1931    0.0000 C   0  0  0  0  0  0  0  0  0  0  0  0
    6.6515   -1.1931    0.0000 C   0  0  0  0  0  0  0  0  0  0  0  0
    3.0791   -3.2557    0.0000 C   0  0  0  0  0  0  0  0  0  0  0  0
    4.5080   -3.2557    0.0000 C   0  0  0  0  0  0  0  0  0  0  0  0
    5.9370   -1.6057    0.0000 C   0  0  0  0  0  0  0  0  0  0  0  0
    3.7935   -3.6682    0.0000 C   0  0  0  0  0  0  0  0  0  0  0  0
  1  6  2  0
  1  7  2  0
  1 12  1  0
  1 23  1  0
  2  3  1  0
  2  8  1  0
  2  9  1  0
  2 11  2  0
 15  3  1  0
 22  4  1  6
  4 27  1  0
  5 28  1  0
  5 29  1  0
 10 27  2  0
 12 17  1  0
 12 18  1  0
 16 13  1  0
 13 27  1  0
 14 39  1  0
 15 16  1  0
 15 17  1  1
 16 19  1  1
 18 20  1  0
 19 21  1  0
 20 24  1  0
 20 25  1  0
 21 30  2  0
 21 31  1  0
 22 26  1  0
 22 28  1  0
 23 32  2  0
 23 33  1  0
 26 29  1  0
 30 34  1  0
 31 35  2  0
 32 36  1  0
 33 37  2  0
 34 38  2  0
 35 38  1  0
 36 39  2  0
 37 39  1  0
M  END
$$$$
