
     RDKit          2D

  4  3  0  0  0  0  0  0  0  0999 V2000
    2.3643    0.2063    0.0000 S   0  0  0  0  0  0  0  0  0  0  0  0
    3.0789    0.6187    0.0000 O   0  0  0  0  0  0  0  0  0  0  0  0
    1.6499    0.6187    0.0000 C   0  0  0  0  0  0  0  0  0  0  0  0
    2.3643   -0.6187    0.0000 C   0  0  0  0  0  0  0  0  0  0  0  0
  1  2  2  0
  1  3  1  0
  1  4  1  0
M  END
$$$$
