1559
     RDKit          2D

 21 23  0  0  0  0  0  0  0  0999 V2000
    4.5315    0.6150    0.0000 Cl  0  0  0  0  0  0  0  0  0  0  0  0
    4.3908   -1.4629    0.0000 S   0  0  0  0  0  0  0  0  0  0  0  0
    1.6500   -2.2011    0.0000 O   0  0  0  0  0  0  0  0  0  0  0  0
    2.9664   -1.7330    0.0000 N   0  0  0  0  0  0  0  0  0  0  0  0
    2.1538   -0.0668    0.0000 N   0  0  0  0  0  0  0  0  0  0  0  0
    3.6048   -0.3904    0.0000 C   0  0  0  0  0  0  0  0  0  0  0  0
    3.6089   -1.2154    0.0000 C   0  0  0  0  0  0  0  0  0  0  0  0
    2.9572    0.1207    0.0000 C   0  0  0  0  0  0  0  0  0  0  0  0
    4.8689   -0.7966    0.0000 C   0  0  0  0  0  0  0  0  0  0  0  0
    4.3842   -0.1351    0.0000 C   0  0  0  0  0  0  0  0  0  0  0  0
    5.6940   -0.7925    0.0000 C   0  0  0  0  0  0  0  0  0  0  0  0
    1.7995   -0.8120    0.0000 C   0  0  0  0  0  0  0  0  0  0  0  0
    2.1612   -1.5535    0.0000 C   0  0  0  0  0  0  0  0  0  0  0  0
    3.1368    0.9260    0.0000 C   0  0  0  0  0  0  0  0  0  0  0  0
    3.1541   -2.5364    0.0000 C   0  0  0  0  0  0  0  0  0  0  0  0
    6.1100   -1.5049    0.0000 C   0  0  0  0  0  0  0  0  0  0  0  0
    3.9240    1.1731    0.0000 C   0  0  0  0  0  0  0  0  0  0  0  0
    2.5292    1.4841    0.0000 C   0  0  0  0  0  0  0  0  0  0  0  0
    4.1035    1.9783    0.0000 C   0  0  0  0  0  0  0  0  0  0  0  0
    2.7088    2.2893    0.0000 C   0  0  0  0  0  0  0  0  0  0  0  0
    3.4959    2.5364    0.0000 C   0  0  0  0  0  0  0  0  0  0  0  0
  1 17  1  0
  2  7  1  0
  2  9  1  0
  3 13  2  0
  4  7  1  0
  4 13  1  0
  4 15  1  0
  5  8  2  0
  5 12  1  0
  6  7  2  0
  6  8  1  0
  6 10  1  0
  8 14  1  0
  9 10  2  0
  9 11  1  0
 11 16  1  0
 12 13  1  0
 14 17  2  0
 14 18  1  0
 17 19  1  0
 18 20  2  0
 19 21  2  0
 20 21  1  0
M  END
$$$$
