
     RDKit          2D

 20 22  0  0  1  0  0  0  0  0999 V2000
    3.8486    1.2172    0.0000 S   0  0  0  0  0  0  0  0  0  0  0  0
    3.5937    2.0019    0.0000 O   0  0  0  0  0  0  0  0  0  0  0  0
    4.5161    1.7021    0.0000 O   0  0  0  0  0  0  0  0  0  0  0  0
    1.6500   -0.4507    0.0000 O   0  0  0  0  0  0  0  0  0  0  0  0
    3.5516   -1.5154    0.0000 O   0  0  0  0  0  0  0  0  0  0  0  0
    4.9105   -1.0738    0.0000 O   0  0  0  0  0  0  0  0  0  0  0  0
    3.0640    0.1373    0.0000 N   0  0  0  0  0  0  0  0  0  0  0  0
    5.7547    0.4005    0.0000 N   0  0  0  0  0  0  0  0  0  0  0  0
    6.4692   -0.0120    0.0000 N   0  0  0  0  0  0  0  0  0  0  0  0
    7.0822    0.5400    0.0000 N   0  0  0  0  0  0  0  0  0  0  0  0
    4.3336    0.5498    0.0000 C   0  0  0  0  0  0  0  0  0  0  0  0
    3.0640    0.9623    0.0000 C   0  0  0  0  0  0  0  0  0  0  0  0
    3.8486   -0.1176    0.0000 C   0  0  0  0  0  0  0  0  0  0  0  0
    2.2322    0.9657    0.0000 C   0  0  0  0  0  0  0  0  0  0  0  0
    2.2322    0.1339    0.0000 C   0  0  0  0  0  0  0  0  0  0  0  0
    5.0010    0.0648    0.0000 C   0  0  0  0  0  0  0  0  0  0  0  0
    5.0010    1.0347    0.0000 C   0  0  0  0  0  0  0  0  0  0  0  0
    4.1036   -0.9023    0.0000 C   0  0  0  0  0  0  0  0  0  0  0  0
    5.9263    1.2074    0.0000 C   0  0  0  0  0  0  0  0  0  0  0  0
    6.7467    1.2936    0.0000 C   0  0  0  0  0  0  0  0  0  0  0  0
  1  2  2  0
  1  3  2  0
  1 11  1  0
  1 12  1  0
  4 15  2  0
  5 18  1  0
  6 18  2  0
  7 12  1  0
  7 13  1  0
  7 15  1  0
  8  9  1  0
  8 16  1  0
  8 19  1  0
  9 10  2  0
 10 20  1  0
 11 13  1  0
 11 16  1  0
 11 17  1  6
 12 14  1  1
 13 18  1  6
 14 15  1  0
 19 20  2  0
M  END
$$$$
