[NO NAME]
     RDKit          2D

 17 18  0  0  0  0  0  0  0  0999 V2000
    1.6500    0.1658    0.0000 O   0  0  0  0  0  0  0  0  0  0  0  0
    4.5080    0.1658    0.0000 O   0  0  0  0  0  0  0  0  0  0  0  0
    3.0791   -2.3092    0.0000 O   0  0  0  0  0  0  0  0  0  0  0  0
    2.3645   -1.0717    0.0000 N   0  0  0  0  0  0  0  0  0  0  0  0
    3.7935   -1.0717    0.0000 N   0  0  0  0  0  0  0  0  0  0  0  0
    2.3645   -0.2467    0.0000 C   0  0  0  0  0  0  0  0  0  0  0  0
    3.7935   -0.2467    0.0000 C   0  0  0  0  0  0  0  0  0  0  0  0
    3.0791   -1.4842    0.0000 C   0  0  0  0  0  0  0  0  0  0  0  0
    1.6500   -1.4842    0.0000 C   0  0  0  0  0  0  0  0  0  0  0  0
    3.0791    0.9908    0.0000 C   0  0  0  0  0  0  0  0  0  0  0  0
    3.7937    1.4033    0.0000 C   0  0  0  0  0  0  0  0  0  0  0  0
    3.7937    2.2283    0.0000 C   0  0  0  0  0  0  0  0  0  0  0  0
    3.0792    2.6408    0.0000 C   0  0  0  0  0  0  0  0  0  0  0  0
    2.3647    2.2284    0.0000 C   0  0  0  0  0  0  0  0  0  0  0  0
    2.3647    1.4034    0.0000 C   0  0  0  0  0  0  0  0  0  0  0  0
    3.0791    0.1658    0.0000 C   0  0  0  0  0  0  0  0  0  0  0  0
    2.4447    0.7448    0.0000 C   0  0  0  0  0  0  0  0  0  0  0  0
  1  6  2  0
  2  7  2  0
  3  8  2  0
  4  6  1  0
  4  8  1  0
  4  9  1  0
  5  7  1  0
  5  8  1  0
 10 11  2  0
 11 12  1  0
 12 13  1  0
 13 14  1  0
 14 15  1  0
 15 10  1  0
 16 10  1  0
 16  7  1  0
 16  6  1  0
 16 17  1  0
M  END
$$$$
