1029
     RDKit          2D

 32 36  0  0  0  0  0  0  0  0999 V2000
    2.6582   -2.3648    0.0000 O   0  0  0  0  0  0  0  0  0  0  0  0
    4.7777   -2.1099    0.0000 N   0  0  0  0  0  0  0  0  0  0  0  0
    3.6977   -1.3252    0.0000 N   0  0  0  0  0  0  0  0  0  0  0  0
    2.8371    2.2237    0.0000 N   0  0  0  0  0  0  0  0  0  0  0  0
    2.6976    3.5512    0.0000 N   0  0  0  0  0  0  0  0  0  0  0  0
    2.0301    2.3952    0.0000 N   0  0  0  0  0  0  0  0  0  0  0  0
    1.9439    3.2157    0.0000 N   0  0  0  0  0  0  0  0  0  0  0  0
    4.1102   -2.5947    0.0000 C   0  0  0  0  0  0  0  0  0  0  0  0
    4.7777   -3.0797    0.0000 C   0  0  0  0  0  0  0  0  0  0  0  0
    3.4427   -3.0797    0.0000 C   0  0  0  0  0  0  0  0  0  0  0  0
    4.5227   -3.8643    0.0000 C   0  0  0  0  0  0  0  0  0  0  0  0
    3.6977   -3.8643    0.0000 C   0  0  0  0  0  0  0  0  0  0  0  0
    3.4427   -2.1099    0.0000 C   0  0  0  0  0  0  0  0  0  0  0  0
    4.5227   -1.3252    0.0000 C   0  0  0  0  0  0  0  0  0  0  0  0
    5.0076   -0.6578    0.0000 C   0  0  0  0  0  0  0  0  0  0  0  0
    3.2128   -0.6578    0.0000 C   0  0  0  0  0  0  0  0  0  0  0  0
    5.8282   -0.7440    0.0000 C   0  0  0  0  0  0  0  0  0  0  0  0
    3.5483    0.0959    0.0000 C   0  0  0  0  0  0  0  0  0  0  0  0
    6.3130   -0.0766    0.0000 C   0  0  0  0  0  0  0  0  0  0  0  0
    4.3688    0.1822    0.0000 C   0  0  0  0  0  0  0  0  0  0  0  0
    3.0634    0.7634    0.0000 C   0  0  0  0  0  0  0  0  0  0  0  0
    7.1336   -0.1628    0.0000 C   0  0  0  0  0  0  0  0  0  0  0  0
    4.7044    0.9358    0.0000 C   0  0  0  0  0  0  0  0  0  0  0  0
    3.3989    1.5170    0.0000 C   0  0  0  0  0  0  0  0  0  0  0  0
    4.2195    1.6033    0.0000 C   0  0  0  0  0  0  0  0  0  0  0  0
    4.5550    2.3570    0.0000 C   0  0  0  0  0  0  0  0  0  0  0  0
    4.0701    3.0244    0.0000 C   0  0  0  0  0  0  0  0  0  0  0  0
    5.3755    2.4432    0.0000 C   0  0  0  0  0  0  0  0  0  0  0  0
    4.4057    3.7781    0.0000 C   0  0  0  0  0  0  0  0  0  0  0  0
    5.7111    3.1969    0.0000 C   0  0  0  0  0  0  0  0  0  0  0  0
    3.2496    2.9382    0.0000 C   0  0  0  0  0  0  0  0  0  0  0  0
    5.2262    3.8643    0.0000 C   0  0  0  0  0  0  0  0  0  0  0  0
  1 13  2  0
  2  8  1  0
  2 14  2  0
  3 13  1  0
  3 14  1  0
  3 16  1  0
  4  6  1  0
  4 31  2  0
  5  7  2  0
  5 31  1  0
  6  7  1  0
  8  9  1  0
  8 10  1  0
  8 13  1  0
  9 11  1  0
 10 12  1  0
 11 12  1  0
 14 15  1  0
 15 17  1  0
 16 18  1  0
 17 19  1  0
 18 20  2  0
 18 21  1  0
 19 22  1  0
 20 23  1  0
 21 24  2  0
 23 25  2  0
 24 25  1  0
 25 26  1  0
 26 27  1  0
 26 28  2  0
 27 29  2  0
 27 31  1  0
 28 30  1  0
 29 32  1  0
 30 32  2  0
M  END
$$$$
