
     RDKit          2D

 36 39  0  0  1  0  0  0  0  0999 V2000
    9.5637   -6.0391    0.0000 C   0  0  0  0  0  0  0  0  0  0  0  0
    9.5637   -5.2141    0.0000 C   0  0  0  0  0  0  0  0  0  0  0  0
    8.8539   -4.8079    0.0000 S   0  0  0  0  0  0  0  0  0  0  0  0
    8.8539   -6.4516    0.0000 C   0  0  0  0  0  0  0  0  0  0  0  0
    8.1390   -6.0391    0.0000 N   0  0  0  0  0  0  0  0  0  0  0  0
    8.1390   -5.2141    0.0000 C   0  0  0  0  0  0  0  0  0  0  0  0
    7.3202   -5.2141    0.0000 C   0  0  0  0  0  0  0  0  0  0  0  0
    7.3202   -6.0391    0.0000 C   0  0  0  0  0  0  0  0  0  0  0  0
    8.8539   -7.2765    0.0000 C   0  0  0  0  0  0  0  0  0  0  0  0
    8.1390   -7.6894    0.0000 O   0  0  0  0  0  0  0  0  0  0  0  0
    9.5637   -7.6894    0.0000 O   0  0  0  0  0  0  0  0  0  0  0  0
    6.6052   -6.4516    0.0000 O   0  0  0  0  0  0  0  0  0  0  0  0
    6.6052   -4.8079    0.0000 N   0  0  0  0  0  0  0  0  0  0  0  0
    7.3202   -4.3953    0.0000 O   0  0  0  0  0  0  0  0  0  0  0  0
    6.6053   -3.9829    0.0000 C   0  0  0  0  0  0  0  0  0  0  0  0
    5.8899   -5.2141    0.0000 C   0  0  0  0  0  0  0  0  0  0  0  0
    5.1753   -4.8079    0.0000 C   0  0  0  0  0  0  0  0  0  0  0  0
    5.8899   -6.0391    0.0000 O   0  0  0  0  0  0  0  0  0  0  0  0
    4.9605   -4.0104    0.0000 S   0  0  0  0  0  0  0  0  0  0  0  0
    4.1634   -4.2249    0.0000 C   0  0  0  0  0  0  0  0  0  0  0  0
    4.3775   -5.0223    0.0000 S   0  0  0  0  0  0  0  0  0  0  0  0
    3.4484   -3.8124    0.0000 C   0  0  0  0  0  0  0  0  0  0  0  0
    3.4484   -2.9874    0.0000 C   0  0  0  0  0  0  0  0  0  0  0  0
    2.7334   -4.2249    0.0000 C   0  0  0  0  0  0  0  0  0  0  0  0
    2.7334   -5.0498    0.0000 N   0  0  0  0  0  0  0  0  0  0  0  0
    2.0181   -3.8124    0.0000 O   0  0  0  0  0  0  0  0  0  0  0  0
    4.1634   -2.5746    0.0000 O   0  0  0  0  0  0  0  0  0  0  0  0
    2.7334   -2.5746    0.0000 O   0  0  0  0  0  0  0  0  0  0  0  0
   10.2784   -6.4516    0.0000 C   0  0  0  0  0  0  0  0  0  0  0  0
   10.9934   -6.0391    0.0000 S   0  0  0  0  0  0  0  0  0  0  0  0
   10.9942   -5.2137    0.0000 C   0  0  0  0  0  0  0  0  0  0  0  0
   10.3288   -4.7273    0.0000 N   0  0  0  0  0  0  0  0  0  0  0  0
   10.5860   -3.9418    0.0000 N   0  0  0  0  0  0  0  0  0  0  0  0
   11.4115   -3.9426    0.0000 N   0  0  0  0  0  0  0  0  0  0  0  0
   11.6618   -4.7294    0.0000 N   0  0  0  0  0  0  0  0  0  0  0  0
   12.4472   -4.9862    0.0000 C   0  0  0  0  0  0  0  0  0  0  0  0
  8  5  1  0
 16 18  2  0
 17 19  1  0
  6  3  1  1
  5  4  1  0
  5  6  1  0
 19 20  1  0
 20 21  1  0
 21 17  1  0
  9 10  1  0
 20 22  2  0
  9 11  2  0
 22 23  1  0
  4  9  1  0
 22 24  1  0
 24 25  1  0
  8 12  2  0
 24 26  2  0
  1  2  1  0
  7 13  1  1
 23 27  1  0
 23 28  2  0
  1  4  2  0
  1 29  1  0
  7 14  1  0
 29 30  1  0
  2  3  1  0
 30 31  1  0
 31 32  2  0
 14 15  1  0
  6  7  1  0
 13 16  1  0
  7  8  1  0
 32 33  1  0
 33 34  2  0
 34 35  1  0
 35 31  1  0
 16 17  1  0
 35 36  1  0
M  END
$$$$
