1280
     RDKit          2D

 21 23  0  0  1  0  0  0  0  0999 V2000
    4.7896    0.8142    0.0000 O   0  0  0  0  0  0  0  0  0  0  0  0
    6.7251   -0.0866    0.0000 O   0  0  0  0  0  0  0  0  0  0  0  0
    6.7282    1.7083    0.0000 O   0  0  0  0  0  0  0  0  0  0  0  0
    5.5752    2.8780    0.0000 O   0  0  0  0  0  0  0  0  0  0  0  0
    3.5220   -2.9522    0.0000 O   0  0  0  0  0  0  0  0  0  0  0  0
    5.0171   -0.6383    0.0000 N   0  0  0  0  0  0  0  0  0  0  0  0
    5.0171   -1.9662    0.0000 N   0  0  0  0  0  0  0  0  0  0  0  0
    3.5220   -0.4772    0.0000 N   0  0  0  0  0  0  0  0  0  0  0  0
    2.8075   -1.7147    0.0000 N   0  0  0  0  0  0  0  0  0  0  0  0
    2.0930   -0.4772    0.0000 N   0  0  0  0  0  0  0  0  0  0  0  0
    6.0585    0.3995    0.0000 C   0  0  0  0  0  0  0  0  0  0  0  0
    5.2734    0.1459    0.0000 C   0  0  0  0  0  0  0  0  0  0  0  0
    6.0599    1.2245    0.0000 C   0  0  0  0  0  0  0  0  0  0  0  0
    5.2757    1.4808    0.0000 C   0  0  0  0  0  0  0  0  0  0  0  0
    5.0221    2.2659    0.0000 C   0  0  0  0  0  0  0  0  0  0  0  0
    4.2365   -0.8897    0.0000 C   0  0  0  0  0  0  0  0  0  0  0  0
    5.4986   -1.3022    0.0000 C   0  0  0  0  0  0  0  0  0  0  0  0
    4.2365   -1.7147    0.0000 C   0  0  0  0  0  0  0  0  0  0  0  0
    3.5220   -2.1272    0.0000 C   0  0  0  0  0  0  0  0  0  0  0  0
    2.8075   -0.8897    0.0000 C   0  0  0  0  0  0  0  0  0  0  0  0
    2.8075   -3.3647    0.0000 C   0  0  0  0  0  0  0  0  0  0  0  0
  1 12  1  0
  1 14  1  0
 11  2  1  6
 13  3  1  1
  4 15  1  0
  5 19  1  0
  5 21  1  0
 12  6  1  6
  6 16  1  0
  6 17  1  0
  7 17  2  0
  7 18  1  0
  8 16  1  0
  8 20  2  0
  9 19  2  0
  9 20  1  0
 10 20  1  0
 11 12  1  0
 11 13  1  0
 13 14  1  0
 14 15  1  6
 16 18  2  0
 18 19  1  0
M  END
$$$$
