1006
     RDKit          2D

 22 24  0  0  0  0  0  0  0  0999 V2000
    2.9558    1.4438    0.0000 N   0  0  0  0  0  0  0  0  0  0  0  0
    2.8695    2.2643    0.0000 N   0  0  0  0  0  0  0  0  0  0  0  0
    1.6500    1.7213    0.0000 N   0  0  0  0  0  0  0  0  0  0  0  0
    3.6703   -3.0938    0.0000 N   0  0  0  0  0  0  0  0  0  0  0  0
    7.2427    3.0938    0.0000 N   0  0  0  0  0  0  0  0  0  0  0  0
    3.6703    1.0313    0.0000 C   0  0  0  0  0  0  0  0  0  0  0  0
    3.6703    0.2063    0.0000 C   0  0  0  0  0  0  0  0  0  0  0  0
    4.3847    1.4438    0.0000 C   0  0  0  0  0  0  0  0  0  0  0  0
    2.9558   -0.2063    0.0000 C   0  0  0  0  0  0  0  0  0  0  0  0
    5.0993    1.0313    0.0000 C   0  0  0  0  0  0  0  0  0  0  0  0
    4.3847   -0.2063    0.0000 C   0  0  0  0  0  0  0  0  0  0  0  0
    4.3847    2.2688    0.0000 C   0  0  0  0  0  0  0  0  0  0  0  0
    2.2021    1.1082    0.0000 C   0  0  0  0  0  0  0  0  0  0  0  0
    2.9558   -1.0313    0.0000 C   0  0  0  0  0  0  0  0  0  0  0  0
    5.8137    1.4438    0.0000 C   0  0  0  0  0  0  0  0  0  0  0  0
    4.3847   -1.0313    0.0000 C   0  0  0  0  0  0  0  0  0  0  0  0
    5.0993    2.6813    0.0000 C   0  0  0  0  0  0  0  0  0  0  0  0
    3.6703   -1.4438    0.0000 C   0  0  0  0  0  0  0  0  0  0  0  0
    5.8137    2.2688    0.0000 C   0  0  0  0  0  0  0  0  0  0  0  0
    2.0625    2.4358    0.0000 C   0  0  0  0  0  0  0  0  0  0  0  0
    3.6703   -2.2688    0.0000 C   0  0  0  0  0  0  0  0  0  0  0  0
    6.5282    2.6813    0.0000 C   0  0  0  0  0  0  0  0  0  0  0  0
  1  2  1  0
  1  6  1  0
  1 13  1  0
  2 20  2  0
  3 13  2  0
  3 20  1  0
  4 21  3  0
  5 22  3  0
  6  7  1  0
  6  8  1  0
  7  9  2  0
  7 11  1  0
  8 10  2  0
  8 12  1  0
  9 14  1  0
 10 15  1  0
 11 16  2  0
 12 17  2  0
 14 18  2  0
 15 19  2  0
 16 18  1  0
 17 19  1  0
 18 21  1  0
 19 22  1  0
M  END
$$$$
