
     RDKit          2D

 29 32  0  0  1  0  0  0  0  0999 V2000
   15.7157  -11.8006    0.0000 C   0  0  0  0  0  0  0  0  0  0  0  0
   15.7157  -12.6255    0.0000 N   0  0  0  0  0  0  0  0  0  0  0  0
   16.4303  -13.0379    0.0000 C   0  0  0  0  0  0  0  0  0  0  0  0
   17.1446  -12.6255    0.0000 C   0  0  0  0  0  0  0  0  0  0  0  0
   17.1446  -11.8006    0.0000 C   0  0  0  0  0  0  0  0  0  0  0  0
   16.4303  -11.3881    0.0000 S   0  0  0  0  0  0  0  0  0  0  0  0
   14.8907  -11.8006    0.0000 C   0  0  0  0  0  0  0  0  0  0  0  0
   14.8907  -12.6255    0.0000 C   0  0  0  0  0  0  0  0  0  0  0  0
   14.1764  -11.3881    0.0000 N   0  0  0  0  0  0  0  0  0  0  0  0
   13.4618  -11.8006    0.0000 C   0  0  0  0  0  0  0  0  0  0  0  0
   13.4618  -12.6255    0.0000 O   0  0  0  0  0  0  0  0  0  0  0  0
   14.1764  -13.0379    0.0000 O   0  0  0  0  0  0  0  0  0  0  0  0
   12.7474  -11.3881    0.0000 C   0  0  0  0  0  0  0  0  0  0  0  0
   17.8700  -13.0445    0.0000 C   0  0  0  0  0  0  0  0  0  0  0  0
   16.4303  -13.8628    0.0000 C   0  0  0  0  0  0  0  0  0  0  0  0
   15.7058  -14.2812    0.0000 O   0  0  0  0  0  0  0  0  0  0  0  0
   17.1346  -14.2696    0.0000 O   0  0  0  0  0  0  0  0  0  0  0  0
   12.0215  -11.8074    0.0000 N   0  0  0  0  0  0  0  0  0  0  0  0
   18.5874  -12.6305    0.0000 S   0  0  0  0  0  0  0  0  0  0  0  0
   19.3017  -13.0431    0.0000 C   0  0  0  0  0  0  0  0  0  0  0  0
   19.5594  -13.8259    0.0000 N   0  0  0  0  0  0  0  0  0  0  0  0
   20.3849  -13.8252    0.0000 N   0  0  0  0  0  0  0  0  0  0  0  0
   20.6393  -13.0399    0.0000 C   0  0  0  0  0  0  0  0  0  0  0  0
   19.9710  -12.5552    0.0000 S   0  0  0  0  0  0  0  0  0  0  0  0
   21.4642  -13.0213    0.0000 C   0  0  0  0  0  0  0  0  0  0  0  0
   11.3408  -11.3282    0.0000 C   0  0  0  0  0  0  0  0  0  0  0  0
   10.6719  -11.8275    0.0000 N   0  0  0  0  0  0  0  0  0  0  0  0
   10.9401  -12.6180    0.0000 N   0  0  0  0  0  0  0  0  0  0  0  0
   11.7748  -12.6073    0.0000 N   0  0  0  0  0  0  0  0  0  0  0  0
  1  2  1  0
  2  3  1  0
  3  4  2  0
  4  5  1  0
  5  6  1  0
  1  6  1  1
  1  7  1  0
  7  8  1  0
  2  8  1  0
  7  9  1  1
  9 10  1  0
 10 11  2  0
  8 12  2  0
 10 13  1  0
  4 14  1  0
  3 15  1  0
 15 16  2  0
 15 17  1  0
 13 18  1  0
 14 19  1  0
 19 20  1  0
 20 21  2  0
 21 22  1  0
 22 23  2  0
 23 24  1  0
 20 24  1  0
 23 25  1  0
 18 26  1  0
 26 27  2  0
 27 28  1  0
 28 29  2  0
 18 29  1  0
M  END
$$$$
