1119
     RDKit          2D

 14 15  0  0  0  0  0  0  0  0999 V2000
    5.7524   -0.7138    0.0000 Cl  0  0  0  0  0  0  0  0  0  0  0  0
    2.9562   -0.6947    0.0000 S   0  0  0  0  0  0  0  0  0  0  0  0
    3.3523   -1.3807    0.0000 O   0  0  0  0  0  0  0  0  0  0  0  0
    2.5601   -1.3807    0.0000 O   0  0  0  0  0  0  0  0  0  0  0  0
    2.9562    0.8895    0.0000 N   0  0  0  0  0  0  0  0  0  0  0  0
    2.2702   -0.2986    0.0000 N   0  0  0  0  0  0  0  0  0  0  0  0
    3.6422   -0.2986    0.0000 C   0  0  0  0  0  0  0  0  0  0  0  0
    3.6422    0.4934    0.0000 C   0  0  0  0  0  0  0  0  0  0  0  0
    2.2702    0.4934    0.0000 C   0  0  0  0  0  0  0  0  0  0  0  0
    4.3502   -0.7221    0.0000 C   0  0  0  0  0  0  0  0  0  0  0  0
    4.3502    0.9170    0.0000 C   0  0  0  0  0  0  0  0  0  0  0  0
    5.0680   -0.3151    0.0000 C   0  0  0  0  0  0  0  0  0  0  0  0
    5.0680    0.5100    0.0000 C   0  0  0  0  0  0  0  0  0  0  0  0
    1.5842    0.8895    0.0000 C   0  0  0  0  0  0  0  0  0  0  0  0
  1 12  1  0
  2  3  2  0
  2  4  2  0
  2  6  1  0
  2  7  1  0
  5  8  1  0
  5  9  1  0
  6  9  2  0
  7  8  2  0
  7 10  1  0
  8 11  1  0
  9 14  1  0
 10 12  2  0
 11 13  2  0
 12 13  1  0
M  END
$$$$
