
     RDKit          2D

  7  6  0  0  0  0  0  0  0  0999 V2000
   17.1672   -9.9413    0.0000 C   0  0  0  0  0  0  0  0  0  0  0  0
   17.8907   -9.5235    0.0000 N   0  0  0  0  0  0  0  0  0  0  0  0
   18.6142   -9.9413    0.0000 C   0  0  0  0  0  0  0  0  0  0  0  0
   19.3377   -9.5235    0.0000 C   0  0  0  0  0  0  0  0  0  0  0  0
   20.0611   -9.9413    0.0000 O   0  0  0  0  0  0  0  0  0  0  0  0
   17.8907   -8.6883    0.0000 C   0  0  0  0  0  0  0  0  0  0  0  0
   17.8907  -10.3590    0.0000 C   0  0  0  0  0  0  0  0  0  0  0  0
  1  2  1  0
  2  3  1  0
  3  4  1  0
  4  5  1  0
  2  6  1  0
  2  7  1  0
M  CHG  1   2   1
M  END
$$$$
