1299
     RDKit          2D

 21 22  0  0  0  0  0  0  0  0999 V2000
    4.5080    0.7755    0.0000 S   0  0  0  0  0  0  0  0  0  0  0  0
    4.9205    0.0611    0.0000 O   0  0  0  0  0  0  0  0  0  0  0  0
    4.0955    1.4900    0.0000 O   0  0  0  0  0  0  0  0  0  0  0  0
    2.3645   -0.4620    0.0000 O   0  0  0  0  0  0  0  0  0  0  0  0
    2.3645   -2.1120    0.0000 O   0  0  0  0  0  0  0  0  0  0  0  0
    3.7935    0.3630    0.0000 N   0  0  0  0  0  0  0  0  0  0  0  0
    4.5080   -0.8745    0.0000 N   0  0  0  0  0  0  0  0  0  0  0  0
    7.3659    2.4256    0.0000 N   0  0  0  0  0  0  0  0  0  0  0  0
    3.7935   -2.1120    0.0000 N   0  0  0  0  0  0  0  0  0  0  0  0
    5.2224    1.1880    0.0000 C   0  0  0  0  0  0  0  0  0  0  0  0
    3.7935   -0.4620    0.0000 C   0  0  0  0  0  0  0  0  0  0  0  0
    5.9370    0.7755    0.0000 C   0  0  0  0  0  0  0  0  0  0  0  0
    5.2224    2.0130    0.0000 C   0  0  0  0  0  0  0  0  0  0  0  0
    3.0791   -0.8745    0.0000 C   0  0  0  0  0  0  0  0  0  0  0  0
    6.6515    1.1880    0.0000 C   0  0  0  0  0  0  0  0  0  0  0  0
    5.9370    2.4256    0.0000 C   0  0  0  0  0  0  0  0  0  0  0  0
    6.6515    2.0130    0.0000 C   0  0  0  0  0  0  0  0  0  0  0  0
    3.0791   -1.6995    0.0000 C   0  0  0  0  0  0  0  0  0  0  0  0
    4.5080   -1.6995    0.0000 C   0  0  0  0  0  0  0  0  0  0  0  0
    1.6500   -0.8745    0.0000 C   0  0  0  0  0  0  0  0  0  0  0  0
    2.3645   -2.9371    0.0000 C   0  0  0  0  0  0  0  0  0  0  0  0
  1  2  2  0
  1  3  2  0
  1  6  1  0
  1 10  1  0
  4 14  1  0
  4 20  1  0
  5 18  1  0
  5 21  1  0
  6 11  1  0
  7 11  2  0
  7 19  1  0
  8 17  1  0
  9 18  1  0
  9 19  2  0
 10 12  2  0
 10 13  1  0
 11 14  1  0
 12 15  1  0
 13 16  2  0
 14 18  2  0
 15 17  2  0
 16 17  1  0
M  END
$$$$
