1268
     RDKit          2D

 29 31  0  0  0  0  0  0  0  0999 V2000
    1.6500   -1.1857    0.0000 F   0  0  0  0  0  0  0  0  0  0  0  0
    7.0944    1.6702    0.0000 O   0  0  0  0  0  0  0  0  0  0  0  0
    5.8806   -2.0107    0.0000 O   0  0  0  0  0  0  0  0  0  0  0  0
   10.0675    1.7635    0.0000 N   0  0  0  0  0  0  0  0  0  0  0  0
    6.2498   -0.9455    0.0000 N   0  0  0  0  0  0  0  0  0  0  0  0
    8.1546    0.7122    0.0000 N   0  0  0  0  0  0  0  0  0  0  0  0
    4.5741   -2.6746    0.0000 N   0  0  0  0  0  0  0  0  0  0  0  0
    9.5144    1.1515    0.0000 C   0  0  0  0  0  0  0  0  0  0  0  0
    6.7949    0.2730    0.0000 C   0  0  0  0  0  0  0  0  0  0  0  0
    5.9746    0.3606    0.0000 C   0  0  0  0  0  0  0  0  0  0  0  0
    5.6377   -0.3925    0.0000 C   0  0  0  0  0  0  0  0  0  0  0  0
    8.7077    1.3244    0.0000 C   0  0  0  0  0  0  0  0  0  0  0  0
    6.9650   -0.5343    0.0000 C   0  0  0  0  0  0  0  0  0  0  0  0
   10.8742    1.5906    0.0000 C   0  0  0  0  0  0  0  0  0  0  0  0
    9.8140    2.5486    0.0000 C   0  0  0  0  0  0  0  0  0  0  0  0
    7.3480    0.8852    0.0000 C   0  0  0  0  0  0  0  0  0  0  0  0
    4.5741   -1.3467    0.0000 C   0  0  0  0  0  0  0  0  0  0  0  0
    4.8304   -0.5626    0.0000 C   0  0  0  0  0  0  0  0  0  0  0  0
    3.7935   -1.5982    0.0000 C   0  0  0  0  0  0  0  0  0  0  0  0
    5.5633    1.0758    0.0000 C   0  0  0  0  0  0  0  0  0  0  0  0
    3.7935   -2.4232    0.0000 C   0  0  0  0  0  0  0  0  0  0  0  0
    7.7181   -0.8711    0.0000 C   0  0  0  0  0  0  0  0  0  0  0  0
    5.0556   -2.0107    0.0000 C   0  0  0  0  0  0  0  0  0  0  0  0
   11.4273    2.2028    0.0000 C   0  0  0  0  0  0  0  0  0  0  0  0
   10.3671    3.1608    0.0000 C   0  0  0  0  0  0  0  0  0  0  0  0
    3.0790   -1.1857    0.0000 C   0  0  0  0  0  0  0  0  0  0  0  0
    3.0790   -2.8357    0.0000 C   0  0  0  0  0  0  0  0  0  0  0  0
    2.3645   -1.5982    0.0000 C   0  0  0  0  0  0  0  0  0  0  0  0
    2.3645   -2.4232    0.0000 C   0  0  0  0  0  0  0  0  0  0  0  0
  1 28  1  0
  2 16  2  0
  3 23  2  0
  4  8  1  0
  4 14  1  0
  4 15  1  0
  5 11  1  0
  5 13  1  0
  6 12  1  0
  6 16  1  0
  7 21  1  0
  7 23  1  0
  8 12  1  0
  9 10  1  0
  9 13  2  0
  9 16  1  0
 10 11  2  0
 10 20  1  0
 11 18  1  0
 13 22  1  0
 14 24  1  0
 15 25  1  0
 17 18  2  0
 17 19  1  0
 17 23  1  0
 19 21  2  0
 19 26  1  0
 21 27  1  0
 26 28  2  0
 27 29  2  0
 28 29  1  0
M  END
$$$$
