
     RDKit          2D

 25 27  0  0  0  0  0  0  0  0999 V2000
    1.8720    3.8116    0.0000 O   0  0  0  0  0  0  0  0  0  0  0  0
    0.4430    1.3365    0.0000 O   0  0  0  0  0  0  0  0  0  0  0  0
    3.3671    2.8254    0.0000 N   0  0  0  0  0  0  0  0  0  0  0  0
    4.6870    4.5640    0.0000 N   0  0  0  0  0  0  0  0  0  0  0  0
    1.8720    1.3365    0.0000 N   0  0  0  0  0  0  0  0  0  0  0  0
    1.1575    2.5741    0.0000 N   0  0  0  0  0  0  0  0  0  0  0  0
    3.3671    1.4977    0.0000 N   0  0  0  0  0  0  0  0  0  0  0  0
    5.4943    4.7341    0.0000 C   0  0  0  0  0  0  0  0  0  0  0  0
    3.6234    3.6097    0.0000 C   0  0  0  0  0  0  0  0  0  0  0  0
    4.4307    3.7798    0.0000 C   0  0  0  0  0  0  0  0  0  0  0  0
    2.5864    2.5741    0.0000 C   0  0  0  0  0  0  0  0  0  0  0  0
    5.7505    5.5183    0.0000 C   0  0  0  0  0  0  0  0  0  0  0  0
    2.5864    1.7490    0.0000 C   0  0  0  0  0  0  0  0  0  0  0  0
    6.0452    4.1201    0.0000 C   0  0  0  0  0  0  0  0  0  0  0  0
    3.8485    2.1615    0.0000 C   0  0  0  0  0  0  0  0  0  0  0  0
    1.8720    2.9866    0.0000 C   0  0  0  0  0  0  0  0  0  0  0  0
    6.5578    5.6884    0.0000 C   0  0  0  0  0  0  0  0  0  0  0  0
    1.1575    1.7490    0.0000 C   0  0  0  0  0  0  0  0  0  0  0  0
    1.8720    0.5115    0.0000 C   0  0  0  0  0  0  0  0  0  0  0  0
    0.4430    2.9866    0.0000 C   0  0  0  0  0  0  0  0  0  0  0  0
    6.8142    6.4727    0.0000 C   0  0  0  0  0  0  0  0  0  0  0  0
    7.1089    5.0744    0.0000 C   0  0  0  0  0  0  0  0  0  0  0  0
    7.6214    6.6428    0.0000 C   0  0  0  0  0  0  0  0  0  0  0  0
    7.9161    5.2446    0.0000 C   0  0  0  0  0  0  0  0  0  0  0  0
    8.1724    6.0287    0.0000 C   0  0  0  0  0  0  0  0  0  0  0  0
  1 16  2  0
  2 18  2  0
  3  9  1  0
  3 11  1  0
  3 15  1  0
  4  8  1  0
  4 10  1  0
  5 13  1  0
  5 18  1  0
  5 19  1  0
  6 16  1  0
  6 18  1  0
  6 20  1  0
  7 13  1  0
  7 15  2  0
  8 12  1  0
  8 14  1  0
  9 10  1  0
 11 13  2  0
 11 16  1  0
 12 17  1  0
 17 21  2  0
 17 22  1  0
 21 23  1  0
 22 24  2  0
 23 25  2  0
 24 25  1  0
M  END
$$$$
