
     RDKit          2D

 27 28  0  0  0  0  0  0  0  0999 V2000
   -2.0959    1.3008    0.0000 C   0  0  0  0  0  0  0  0  0  0  0  0
   -2.0959    0.4758    0.0000 C   0  0  0  0  0  0  0  0  0  0  0  0
   -1.3830    0.0633    0.0000 C   0  0  0  0  0  0  0  0  0  0  0  0
   -1.3830    1.7134    0.0000 O   0  0  0  0  0  0  0  0  0  0  0  0
   -0.6702    1.3008    0.0000 C   0  0  0  0  0  0  0  0  0  0  0  0
   -0.6656    0.4748    0.0000 C   0  0  0  0  0  0  0  0  0  0  0  0
    0.1213    0.2238    0.0000 C   0  0  0  0  0  0  0  0  0  0  0  0
    0.6032    0.8948    0.0000 C   0  0  0  0  0  0  0  0  0  0  0  0
    0.1139    1.5603    0.0000 C   0  0  0  0  0  0  0  0  0  0  0  0
    1.4282    0.8994    0.0000 O   0  0  0  0  0  0  0  0  0  0  0  0
   -2.5311    2.0056    0.0000 C   0  0  0  0  0  0  0  0  0  0  0  0
   -3.3584    1.9856    0.0000 C   0  0  0  0  0  0  0  0  0  0  0  0
   -1.8313    2.4454    0.0000 F   0  0  0  0  0  0  0  0  0  0  0  0
   -2.5622    2.8300    0.0000 F   0  0  0  0  0  0  0  0  0  0  0  0
   -3.7909    2.6860    0.0000 C   0  0  0  0  0  0  0  0  0  0  0  0
   -2.9209    1.3008    0.0000 O   0  0  0  0  0  0  0  0  0  0  0  0
   -4.6155    2.6617    0.0000 C   0  0  0  0  0  0  0  0  0  0  0  0
   -5.0489    3.3637    0.0000 C   0  0  0  0  0  0  0  0  0  0  0  0
    0.5247   -0.4850    0.0000 C   0  0  0  0  0  0  0  0  0  0  0  0
    1.3498   -0.4903    0.0000 C   0  0  0  0  0  0  0  0  0  0  0  0
    1.7578   -1.2073    0.0000 C   0  0  0  0  0  0  0  0  0  0  0  0
    2.5828   -1.2125    0.0000 C   0  0  0  0  0  0  0  0  0  0  0  0
    2.9908   -1.9295    0.0000 C   0  0  0  0  0  0  0  0  0  0  0  0
    3.8158   -1.9347    0.0000 C   0  0  0  0  0  0  0  0  0  0  0  0
    4.2238   -2.6518    0.0000 C   0  0  0  0  0  0  0  0  0  0  0  0
    3.8068   -3.3637    0.0000 O   0  0  0  0  0  0  0  0  0  0  0  0
    5.0489   -2.6569    0.0000 O   0  0  0  0  0  0  0  0  0  0  0  0
 11 14  1  0
  2  3  1  0
 12 15  1  0
  6  3  1  1
  1 16  1  1
  6  7  1  0
 15 17  1  0
  7  8  1  0
 17 18  1  0
  8  9  1  0
  5  9  1  6
  5  4  1  0
  7 19  1  6
  8 10  2  0
 19 20  1  0
  5  6  1  0
 20 21  1  0
  1 11  1  0
 21 22  1  0
 22 23  1  0
 11 12  1  0
 23 24  1  0
  1  2  1  0
 24 25  1  0
 11 13  1  0
 25 26  2  0
  1  4  1  0
 25 27  1  0
M  END
$$$$
