1336
     RDKit          2D

 48 54  0  0  1  0  0  0  0  0999 V2000
    4.6298    1.1720    0.0000 O   0  0  0  0  0  0  0  0  0  0  0  0
    6.0480   -1.8446    0.0000 O   0  0  0  0  0  0  0  0  0  0  0  0
    2.9824    1.9661    0.0000 O   0  0  0  0  0  0  0  0  0  0  0  0
    2.9824    3.6218    0.0000 O   0  0  0  0  0  0  0  0  0  0  0  0
    6.2164   -3.6340    0.0000 O   0  0  0  0  0  0  0  0  0  0  0  0
    7.2846   -1.6909    0.0000 O   0  0  0  0  0  0  0  0  0  0  0  0
    6.5598    2.3815    0.0000 N   0  0  0  0  0  0  0  0  0  0  0  0
    2.4799   -3.0217    0.0000 N   0  0  0  0  0  0  0  0  0  0  0  0
    5.8453    1.9689    0.0000 C   0  0  0  0  0  0  0  0  0  0  0  0
    3.1135   -2.4934    0.0000 C   0  0  0  0  0  0  0  0  0  0  0  0
    6.5598    3.2065    0.0000 C   0  0  0  0  0  0  0  0  0  0  0  0
    2.6205   -3.8347    0.0000 C   0  0  0  0  0  0  0  0  0  0  0  0
    5.1307    2.3815    0.0000 C   0  0  0  0  0  0  0  0  0  0  0  0
    5.8453    3.6190    0.0000 C   0  0  0  0  0  0  0  0  0  0  0  0
    3.8879   -2.7781    0.0000 C   0  0  0  0  0  0  0  0  0  0  0  0
    5.6317    1.1720    0.0000 C   0  0  0  0  0  0  0  0  0  0  0  0
    5.1307    3.2065    0.0000 C   0  0  0  0  0  0  0  0  0  0  0  0
    3.3949   -4.1194    0.0000 C   0  0  0  0  0  0  0  0  0  0  0  0
    6.9751    1.6620    0.0000 C   0  0  0  0  0  0  0  0  0  0  0  0
    7.3904    2.3815    0.0000 C   0  0  0  0  0  0  0  0  0  0  0  0
    2.9797   -1.6860    0.0000 C   0  0  0  0  0  0  0  0  0  0  0  0
    4.0286   -3.5911    0.0000 C   0  0  0  0  0  0  0  0  0  0  0  0
    1.6613   -3.1635    0.0000 C   0  0  0  0  0  0  0  0  0  0  0  0
    1.9479   -2.3838    0.0000 C   0  0  0  0  0  0  0  0  0  0  0  0
    4.4163    1.9689    0.0000 C   0  0  0  0  0  0  0  0  0  0  0  0
    6.0442    0.4575    0.0000 C   0  0  0  0  0  0  0  0  0  0  0  0
    4.5216   -2.2498    0.0000 C   0  0  0  0  0  0  0  0  0  0  0  0
    4.4163    3.6190    0.0000 C   0  0  0  0  0  0  0  0  0  0  0  0
    3.3922   -0.9715    0.0000 C   0  0  0  0  0  0  0  0  0  0  0  0
    4.8030   -3.8757    0.0000 C   0  0  0  0  0  0  0  0  0  0  0  0
    3.7017    2.3815    0.0000 C   0  0  0  0  0  0  0  0  0  0  0  0
    5.2960   -2.5345    0.0000 C   0  0  0  0  0  0  0  0  0  0  0  0
    3.7017    3.2065    0.0000 C   0  0  0  0  0  0  0  0  0  0  0  0
    5.4367   -3.3474    0.0000 C   0  0  0  0  0  0  0  0  0  0  0  0
    5.6317   -0.2570    0.0000 C   0  0  0  0  0  0  0  0  0  0  0  0
    6.8693    0.4575    0.0000 C   0  0  0  0  0  0  0  0  0  0  0  0
    4.2173   -0.9715    0.0000 C   0  0  0  0  0  0  0  0  0  0  0  0
    2.9797   -0.2570    0.0000 C   0  0  0  0  0  0  0  0  0  0  0  0
    4.2173    0.4575    0.0000 C   0  0  0  0  0  0  0  0  0  0  0  0
    6.0442   -0.9715    0.0000 C   0  0  0  0  0  0  0  0  0  0  0  0
    4.6298   -0.2570    0.0000 C   0  0  0  0  0  0  0  0  0  0  0  0
    3.3922    0.4575    0.0000 C   0  0  0  0  0  0  0  0  0  0  0  0
    7.2818   -0.2570    0.0000 C   0  0  0  0  0  0  0  0  0  0  0  0
    6.8693   -0.9715    0.0000 C   0  0  0  0  0  0  0  0  0  0  0  0
    2.2630    2.3815    0.0000 C   0  0  0  0  0  0  0  0  0  0  0  0
    2.9824    4.4525    0.0000 C   0  0  0  0  0  0  0  0  0  0  0  0
    6.3580   -4.4525    0.0000 C   0  0  0  0  0  0  0  0  0  0  0  0
    8.1153   -1.6909    0.0000 C   0  0  0  0  0  0  0  0  0  0  0  0
  1 25  1  0
  1 39  1  0
  2 32  1  0
  2 40  1  0
  3 31  1  0
  3 45  1  0
  4 33  1  0
  4 46  1  0
  5 34  1  0
  5 47  1  0
  6 44  1  0
  6 48  1  0
  9  7  1  6
  7 11  1  0
  7 19  1  0
  7 20  1  0
 10  8  1  1
  8 12  1  0
  8 23  1  0
  8 24  1  0
  9 13  1  0
  9 16  1  0
 10 15  1  0
 10 21  1  0
 11 14  1  0
 12 18  1  0
 13 17  2  0
 13 25  1  0
 14 17  1  0
 15 22  2  0
 15 27  1  0
 16 26  1  0
 17 28  1  0
 18 22  1  0
 21 29  1  0
 22 30  1  0
 25 31  2  0
 26 35  1  0
 26 36  2  0
 27 32  2  0
 28 33  2  0
 29 37  2  0
 29 38  1  0
 30 34  2  0
 31 33  1  0
 32 34  1  0
 35 40  2  0
 36 43  1  0
 37 41  1  0
 38 42  2  0
 39 41  2  0
 39 42  1  0
 40 44  1  0
 43 44  2  0
M  CHG  2   7   1   8   1
M  END
$$$$
