
     RDKit          2D

 10 10  0  0  0  0  0  0  0  0999 V2000
    5.1222   -1.0725    0.0000 C   0  0  0  0  0  0  0  0  0  0  0  0
    4.4077   -1.4850    0.0000 C   0  0  0  0  0  0  0  0  0  0  0  0
    3.6933   -1.0725    0.0000 C   0  0  0  0  0  0  0  0  0  0  0  0
    3.6933   -0.2475    0.0000 C   0  0  0  0  0  0  0  0  0  0  0  0
    4.4077    0.1650    0.0000 C   0  0  0  0  0  0  0  0  0  0  0  0
    5.1222   -0.2475    0.0000 C   0  0  0  0  0  0  0  0  0  0  0  0
    4.4077    0.9900    0.0000 C   0  0  0  0  0  0  0  0  0  0  0  0
    3.6933    1.4025    0.0000 O   0  0  0  0  0  0  0  0  0  0  0  0
    5.1222    1.4025    0.0000 O   0  0  0  0  0  0  0  0  0  0  0  0
    2.9788    0.1650    0.0000 O   0  0  0  0  0  0  0  0  0  0  0  0
  1  2  2  0
  2  3  1  0
  3  4  2  0
  4  5  1  0
  5  6  2  0
  1  6  1  0
  5  7  1  0
  7  8  2  0
  7  9  1  0
  4 10  1  0
M  CHG  1   9  -1
M  END
$$$$
