1099
     RDKit          2D

  9  9  0  0  0  0  0  0  0  0999 V2000
    2.0930    1.0808    0.0000 F   0  0  0  0  0  0  0  0  0  0  0  0
    4.9509   -0.5693    0.0000 O   0  0  0  0  0  0  0  0  0  0  0  0
    3.5220   -0.5693    0.0000 N   0  0  0  0  0  0  0  0  0  0  0  0
    2.0930   -0.5693    0.0000 N   0  0  0  0  0  0  0  0  0  0  0  0
    4.2365    0.6683    0.0000 N   0  0  0  0  0  0  0  0  0  0  0  0
    2.8075   -0.1568    0.0000 C   0  0  0  0  0  0  0  0  0  0  0  0
    2.8075    0.6683    0.0000 C   0  0  0  0  0  0  0  0  0  0  0  0
    4.2365   -0.1568    0.0000 C   0  0  0  0  0  0  0  0  0  0  0  0
    3.5220    1.0808    0.0000 C   0  0  0  0  0  0  0  0  0  0  0  0
  1  7  1  0
  2  8  2  0
  3  6  1  0
  3  8  1  0
  4  6  1  0
  5  8  1  0
  5  9  2  0
  6  7  2  0
  7  9  1  0
M  END
$$$$
