1242
     RDKit          2D

 22 24  0  0  0  0  0  0  0  0999 V2000
    1.5842    0.1860    0.0000 Cl  0  0  0  0  0  0  0  0  0  0  0  0
    4.2627    0.7166    0.0000 N   0  0  0  0  0  0  0  0  0  0  0  0
    5.6347   -1.6596    0.0000 N   0  0  0  0  0  0  0  0  0  0  0  0
    4.2627   -0.0755    0.0000 C   0  0  0  0  0  0  0  0  0  0  0  0
    3.5491    1.0603    0.0000 C   0  0  0  0  0  0  0  0  0  0  0  0
    4.9763    1.0603    0.0000 C   0  0  0  0  0  0  0  0  0  0  0  0
    3.8667    2.4517    0.0000 C   0  0  0  0  0  0  0  0  0  0  0  0
    4.6588    2.4517    0.0000 C   0  0  0  0  0  0  0  0  0  0  0  0
    3.3729    1.8325    0.0000 C   0  0  0  0  0  0  0  0  0  0  0  0
    5.1526    1.8325    0.0000 C   0  0  0  0  0  0  0  0  0  0  0  0
    4.9488   -0.4715    0.0000 C   0  0  0  0  0  0  0  0  0  0  0  0
    4.9488   -1.2636    0.0000 C   0  0  0  0  0  0  0  0  0  0  0  0
    2.9530    0.4898    0.0000 C   0  0  0  0  0  0  0  0  0  0  0  0
    5.5725    0.4898    0.0000 C   0  0  0  0  0  0  0  0  0  0  0  0
    2.5884    2.0878    0.0000 C   0  0  0  0  0  0  0  0  0  0  0  0
    5.9373    2.0878    0.0000 C   0  0  0  0  0  0  0  0  0  0  0  0
    2.1627    0.7270    0.0000 C   0  0  0  0  0  0  0  0  0  0  0  0
    6.3627    0.7269    0.0000 C   0  0  0  0  0  0  0  0  0  0  0  0
    1.9792    1.5314    0.0000 C   0  0  0  0  0  0  0  0  0  0  0  0
    6.5464    1.5313    0.0000 C   0  0  0  0  0  0  0  0  0  0  0  0
    5.6347   -2.4517    0.0000 C   0  0  0  0  0  0  0  0  0  0  0  0
    6.3207   -1.2636    0.0000 C   0  0  0  0  0  0  0  0  0  0  0  0
  1 17  1  0
  2  4  1  0
  2  5  1  0
  2  6  1  0
  3 12  1  0
  3 21  1  0
  3 22  1  0
  4 11  1  0
  5  9  2  0
  5 13  1  0
  6 10  2  0
  6 14  1  0
  7  8  1  0
  7  9  1  0
  8 10  1  0
  9 15  1  0
 10 16  1  0
 11 12  1  0
 13 17  2  0
 14 18  2  0
 15 19  2  0
 16 20  2  0
 17 19  1  0
 18 20  1  0
M  END
$$$$
