1349
     RDKit          2D

 31 35  0  0  0  0  0  0  0  0999 V2000
    4.5080    1.1005    0.0000 O   0  0  0  0  0  0  0  0  0  0  0  0
    5.9370    1.1005    0.0000 N   0  0  0  0  0  0  0  0  0  0  0  0
    7.3889    1.0719    0.0000 N   0  0  0  0  0  0  0  0  0  0  0  0
    8.1365    2.3552    0.0000 N   0  0  0  0  0  0  0  0  0  0  0  0
    4.5472   -2.2765    0.0000 N   0  0  0  0  0  0  0  0  0  0  0  0
    3.8797   -3.4326    0.0000 N   0  0  0  0  0  0  0  0  0  0  0  0
    5.0993   -2.8896    0.0000 N   0  0  0  0  0  0  0  0  0  0  0  0
    4.6868   -3.6041    0.0000 N   0  0  0  0  0  0  0  0  0  0  0  0
    5.9370    2.7505    0.0000 C   0  0  0  0  0  0  0  0  0  0  0  0
    6.6515    2.3380    0.0000 C   0  0  0  0  0  0  0  0  0  0  0  0
    5.2224    2.3380    0.0000 C   0  0  0  0  0  0  0  0  0  0  0  0
    6.6515    1.5130    0.0000 C   0  0  0  0  0  0  0  0  0  0  0  0
    5.9370    0.2755    0.0000 C   0  0  0  0  0  0  0  0  0  0  0  0
    5.2224    1.5130    0.0000 C   0  0  0  0  0  0  0  0  0  0  0  0
    7.3889    2.7792    0.0000 C   0  0  0  0  0  0  0  0  0  0  0  0
    5.2224   -0.1370    0.0000 C   0  0  0  0  0  0  0  0  0  0  0  0
    8.1365    1.4958    0.0000 C   0  0  0  0  0  0  0  0  0  0  0  0
    5.2224   -0.9621    0.0000 C   0  0  0  0  0  0  0  0  0  0  0  0
    4.5080    0.2755    0.0000 C   0  0  0  0  0  0  0  0  0  0  0  0
    7.3795    3.6041    0.0000 C   0  0  0  0  0  0  0  0  0  0  0  0
    3.7935   -0.9621    0.0000 C   0  0  0  0  0  0  0  0  0  0  0  0
    4.5080   -1.3746    0.0000 C   0  0  0  0  0  0  0  0  0  0  0  0
    3.7935   -0.1370    0.0000 C   0  0  0  0  0  0  0  0  0  0  0  0
    3.0791   -1.3746    0.0000 C   0  0  0  0  0  0  0  0  0  0  0  0
    8.8494    1.0806    0.0000 C   0  0  0  0  0  0  0  0  0  0  0  0
    3.0791   -2.1996    0.0000 C   0  0  0  0  0  0  0  0  0  0  0  0
    2.3645   -0.9621    0.0000 C   0  0  0  0  0  0  0  0  0  0  0  0
    2.3645   -2.6121    0.0000 C   0  0  0  0  0  0  0  0  0  0  0  0
    1.6500   -1.3746    0.0000 C   0  0  0  0  0  0  0  0  0  0  0  0
    3.7935   -2.6121    0.0000 C   0  0  0  0  0  0  0  0  0  0  0  0
    1.6500   -2.1996    0.0000 C   0  0  0  0  0  0  0  0  0  0  0  0
  1 14  2  0
  2 12  1  0
  2 13  1  0
  2 14  1  0
  3 12  2  0
  3 17  1  0
  4 15  1  0
  4 17  2  0
  5  7  1  0
  5 30  2  0
  6  8  2  0
  6 30  1  0
  7  8  1  0
  9 10  1  0
  9 11  1  0
 10 12  1  0
 10 15  2  0
 11 14  1  0
 13 16  1  0
 15 20  1  0
 16 18  2  0
 16 19  1  0
 17 25  1  0
 18 22  1  0
 19 23  2  0
 21 22  2  0
 21 23  1  0
 21 24  1  0
 24 26  1  0
 24 27  2  0
 26 28  2  0
 26 30  1  0
 27 29  1  0
 28 31  1  0
 29 31  2  0
M  END
$$$$
