1420
     RDKit          2D

 25 28  0  0  1  0  0  0  0  0999 V2000
    7.1363    1.2335    0.0000 O   0  0  0  0  0  0  0  0  0  0  0  0
    1.6500   -2.3202    0.0000 O   0  0  0  0  0  0  0  0  0  0  0  0
    8.4945    0.7896    0.0000 O   0  0  0  0  0  0  0  0  0  0  0  0
    6.0993   -0.6270    0.0000 C   0  0  0  0  0  0  0  0  0  0  0  0
    6.0993    0.1980    0.0000 C   0  0  0  0  0  0  0  0  0  0  0  0
    5.3849   -1.0395    0.0000 C   0  0  0  0  0  0  0  0  0  0  0  0
    4.6703   -0.6270    0.0000 C   0  0  0  0  0  0  0  0  0  0  0  0
    3.9196   -1.0452    0.0000 C   0  0  0  0  0  0  0  0  0  0  0  0
    5.3849    0.6105    0.0000 C   0  0  0  0  0  0  0  0  0  0  0  0
    4.6703    0.1980    0.0000 C   0  0  0  0  0  0  0  0  0  0  0  0
    6.8799    0.4494    0.0000 C   0  0  0  0  0  0  0  0  0  0  0  0
    6.8799   -0.8785    0.0000 C   0  0  0  0  0  0  0  0  0  0  0  0
    5.3981   -1.8987    0.0000 C   0  0  0  0  0  0  0  0  0  0  0  0
    7.3614   -0.2145    0.0000 C   0  0  0  0  0  0  0  0  0  0  0  0
    3.9130   -1.9045    0.0000 C   0  0  0  0  0  0  0  0  0  0  0  0
    6.0993    1.0230    0.0000 C   0  0  0  0  0  0  0  0  0  0  0  0
    4.6572   -2.3342    0.0000 C   0  0  0  0  0  0  0  0  0  0  0  0
    3.1550   -0.5798    0.0000 C   0  0  0  0  0  0  0  0  0  0  0  0
    3.9259   -0.2202    0.0000 C   0  0  0  0  0  0  0  0  0  0  0  0
    2.3730   -1.0153    0.0000 C   0  0  0  0  0  0  0  0  0  0  0  0
    3.1413   -2.3580    0.0000 C   0  0  0  0  0  0  0  0  0  0  0  0
    2.3660   -1.9105    0.0000 C   0  0  0  0  0  0  0  0  0  0  0  0
    7.9435    1.4037    0.0000 C   0  0  0  0  0  0  0  0  0  0  0  0
    8.1998    2.1879    0.0000 C   0  0  0  0  0  0  0  0  0  0  0  0
    9.0071    2.3580    0.0000 C   0  0  0  0  0  0  0  0  0  0  0  0
 11  1  1  1
  1 23  1  0
  2 22  2  0
  3 23  2  0
  4  5  1  0
  4  6  1  0
  4 12  1  1
  5  9  1  0
  5 11  1  0
  5 16  1  1
  6  7  1  0
  6 13  1  6
  7  8  1  0
  7 10  1  1
  8 15  1  0
  8 18  1  0
  8 19  1  1
  9 10  1  0
 11 14  1  0
 12 14  1  0
 13 17  1  0
 15 17  1  0
 15 21  2  0
 18 20  1  0
 20 22  1  0
 21 22  1  0
 23 24  1  0
 24 25  1  0
M  END
$$$$
