
     RDKit          2D

 59 63  0  0  0  0  0  0  0  0999 V2000
    1.0895   -0.5562    0.0000 C   0  0  0  0  0  0  0  0  0  0  0  0
    1.0895   -1.3813    0.0000 C   0  0  0  0  0  0  0  0  0  0  0  0
   -0.3395   -1.3813    0.0000 C   0  0  0  0  0  0  0  0  0  0  0  0
    0.3750   -1.7938    0.0000 C   0  0  0  0  0  0  0  0  0  0  0  0
    2.5184   -1.3813    0.0000 C   0  0  0  0  0  0  0  0  0  0  0  0
    3.2329   -1.7938    0.0000 C   0  0  0  0  0  0  0  0  0  0  0  0
    3.9473   -1.3813    0.0000 N   0  0  0  0  0  0  0  0  0  0  0  0
    5.3763   -1.3812    0.0000 C   0  0  0  0  0  0  0  0  0  0  0  0
    4.6618   -2.6188    0.0000 C   0  0  0  0  0  0  0  0  0  0  0  0
    5.3763   -3.0313    0.0000 C   0  0  0  0  0  0  0  0  0  0  0  0
    6.0907   -1.7938    0.0000 C   0  0  0  0  0  0  0  0  0  0  0  0
    4.6618   -1.7938    0.0000 N   0  0  0  0  0  0  0  0  0  0  0  0
    6.0907   -2.6188    0.0000 N   0  0  0  0  0  0  0  0  0  0  0  0
    6.8052   -3.0313    0.0000 C   0  0  0  0  0  0  0  0  0  0  0  0
    2.5184   -0.5562    0.0000 C   0  0  0  0  0  0  0  0  0  0  0  0
    3.2329   -0.1437    0.0000 N   0  0  0  0  0  0  0  0  0  0  0  0
    3.9473    1.9188    0.0000 C   0  0  0  0  0  0  0  0  0  0  0  0
    3.2329    2.3313    0.0000 C   0  0  0  0  0  0  0  0  0  0  0  0
    2.5184    1.9188    0.0000 C   0  0  0  0  0  0  0  0  0  0  0  0
   -1.7684   -1.3812    0.0000 C   0  0  0  0  0  0  0  0  0  0  0  0
   -2.4829   -1.7937    0.0000 C   0  0  0  0  0  0  0  0  0  0  0  0
   -2.4829   -2.6187    0.0000 O   0  0  0  0  0  0  0  0  0  0  0  0
    3.2329    0.6813    0.0000 C   0  0  0  0  0  0  0  0  0  0  0  0
    2.5184    1.0938    0.0000 O   0  0  0  0  0  0  0  0  0  0  0  0
    1.8039   -0.1437    0.0000 C   0  0  0  0  0  0  0  0  0  0  0  0
    1.8039    0.6813    0.0000 O   0  0  0  0  0  0  0  0  0  0  0  0
    0.3750   -0.1437    0.0000 C   0  0  0  0  0  0  0  0  0  0  0  0
    0.3750    0.6813    0.0000 O   0  0  0  0  0  0  0  0  0  0  0  0
   -0.3395   -0.5562    0.0000 C   0  0  0  0  0  0  0  0  0  0  0  0
   -0.5530    0.2406    0.0000 C   0  0  0  0  0  0  0  0  0  0  0  0
   -1.0539   -1.7938    0.0000 O   0  0  0  0  0  0  0  0  0  0  0  0
    0.3750   -2.6188    0.0000 C   0  0  0  0  0  0  0  0  0  0  0  0
    0.9583   -3.2021    0.0000 O   0  0  0  0  0  0  0  0  0  0  0  0
   -1.0539   -2.6188    0.0000 C   0  0  0  0  0  0  0  0  0  0  0  0
   -1.0539   -3.4438    0.0000 C   0  0  0  0  0  0  0  0  0  0  0  0
   -1.0540   -0.1437    0.0000 C   0  0  0  0  0  0  0  0  0  0  0  0
   -1.7684    0.2688    0.0000 C   0  0  0  0  0  0  0  0  0  0  0  0
   -1.7684   -0.5562    0.0000 C   0  0  0  0  0  0  0  0  0  0  0  0
   -2.4829   -0.1437    0.0000 O   0  0  0  0  0  0  0  0  0  0  0  0
   -3.1974   -0.5562    0.0000 C   0  0  0  0  0  0  0  0  0  0  0  0
   -1.0540    0.6813    0.0000 C   0  0  0  0  0  0  0  0  0  0  0  0
   -1.7684    1.0938    0.0000 O   0  0  0  0  0  0  0  0  0  0  0  0
   -3.3079    0.6813    0.0000 C   0  0  0  0  0  0  0  0  0  0  0  0
   -2.5934    1.0938    0.0000 C   0  0  0  0  0  0  0  0  0  0  0  0
   -2.8070    1.8906    0.0000 O   0  0  0  0  0  0  0  0  0  0  0  0
   -0.3395    1.0938    0.0000 C   0  0  0  0  0  0  0  0  0  0  0  0
   -1.0540    1.5063    0.0000 C   0  0  0  0  0  0  0  0  0  0  0  0
   -0.3395    1.9188    0.0000 C   0  0  0  0  0  0  0  0  0  0  0  0
   -1.0540    2.3313    0.0000 O   0  0  0  0  0  0  0  0  0  0  0  0
    0.3750    2.3313    0.0000 C   0  0  0  0  0  0  0  0  0  0  0  0
    0.3750    3.1563    0.0000 C   0  0  0  0  0  0  0  0  0  0  0  0
    1.0895    1.9188    0.0000 C   0  0  0  0  0  0  0  0  0  0  0  0
    1.0895    1.0938    0.0000 O   0  0  0  0  0  0  0  0  0  0  0  0
    1.8039    2.3313    0.0000 C   0  0  0  0  0  0  0  0  0  0  0  0
    1.8039    3.1563    0.0000 C   0  0  0  0  0  0  0  0  0  0  0  0
    3.9473    1.0938    0.0000 C   0  0  0  0  0  0  0  0  0  0  0  0
    4.6618    0.6813    0.0000 C   0  0  0  0  0  0  0  0  0  0  0  0
    1.8039   -1.7938    0.0000 C   0  0  0  0  0  0  0  0  0  0  0  0
    1.8039   -2.6188    0.0000 O   0  0  0  0  0  0  0  0  0  0  0  0
 27 29  1  0
 27  1  2  0
 29  3  2  0
  4  2  2  0
 25  1  1  0
  2  1  1  0
  2 58  1  0
 25 15  2  0
 58  5  2  0
  5 15  1  0
  3 31  1  0
  3  4  1  0
  4 32  1  0
 32 34  1  0
 34 31  1  0
  5  6  1  0
  6  7  2  0
  7 12  1  0
  8 12  1  0
 12  9  1  0
  8 11  1  0
  9 10  1  0
 10 13  1  0
 13 11  1  0
 13 14  1  0
 15 16  1  0
 16 23  1  0
 23 56  1  0
 56 17  2  0
 17 18  1  0
 18 19  2  0
 19 54  1  0
 54 52  1  0
 52 50  1  0
 50 48  1  0
 48 46  1  0
 46 41  1  0
 41 36  1  0
 36 38  1  0
 38 20  1  0
 20 21  2  0
 21 22  1  0
 34 22  1  0
 23 24  2  0
 25 26  1  0
 27 28  1  0
 29 30  1  0
 32 33  2  0
 34 35  1  6
 36 37  1  6
 38 39  1  6
 39 40  1  0
 41 42  1  1
 42 44  1  0
 44 43  1  0
 44 45  2  0
 46 47  1  1
 48 49  1  6
 50 51  1  6
 52 53  1  6
 54 55  1  1
 56 57  1  0
 58 59  1  0
M  END
$$$$
