1180
     RDKit          2D

 46 51  0  0  1  0  0  0  0  0999 V2000
    9.0363   -1.7074    0.0000 O   0  0  0  0  0  0  0  0  0  0  0  0
   10.1908   -0.4251    0.0000 O   0  0  0  0  0  0  0  0  0  0  0  0
    7.5971   -2.1231    0.0000 O   0  0  0  0  0  0  0  0  0  0  0  0
    6.5463   -1.1548    0.0000 O   0  0  0  0  0  0  0  0  0  0  0  0
   10.4823    0.9736    0.0000 O   0  0  0  0  0  0  0  0  0  0  0  0
    2.2047    1.5699    0.0000 O   0  0  0  0  0  0  0  0  0  0  0  0
   14.2286   -1.2671    0.0000 O   0  0  0  0  0  0  0  0  0  0  0  0
   14.8118    1.5303    0.0000 O   0  0  0  0  0  0  0  0  0  0  0  0
   15.3278   -0.0368    0.0000 O   0  0  0  0  0  0  0  0  0  0  0  0
    7.1069    1.7458    0.0000 N   0  0  0  0  0  0  0  0  0  0  0  0
    5.0832    0.8239    0.0000 N   0  0  0  0  0  0  0  0  0  0  0  0
    7.6469    0.1264    0.0000 C   0  0  0  0  0  0  0  0  0  0  0  0
    8.2218    0.7649    0.0000 C   0  0  0  0  0  0  0  0  0  0  0  0
    6.8078    0.3115    0.0000 C   0  0  0  0  0  0  0  0  0  0  0  0
    7.9102   -0.7289    0.0000 C   0  0  0  0  0  0  0  0  0  0  0  0
    6.5548    1.1327    0.0000 C   0  0  0  0  0  0  0  0  0  0  0  0
    7.9499    1.5801    0.0000 C   0  0  0  0  0  0  0  0  0  0  0  0
    9.1000    0.5924    0.0000 C   0  0  0  0  0  0  0  0  0  0  0  0
    8.7843   -0.9218    0.0000 C   0  0  0  0  0  0  0  0  0  0  0  0
    9.3832   -0.2567    0.0000 C   0  0  0  0  0  0  0  0  0  0  0  0
    5.7480    1.3042    0.0000 C   0  0  0  0  0  0  0  0  0  0  0  0
    6.8519    2.5303    0.0000 C   0  0  0  0  0  0  0  0  0  0  0  0
    5.4931    2.0888    0.0000 C   0  0  0  0  0  0  0  0  0  0  0  0
    6.0451    2.7018    0.0000 C   0  0  0  0  0  0  0  0  0  0  0  0
    7.3513   -1.3356    0.0000 C   0  0  0  0  0  0  0  0  0  0  0  0
    4.6731    2.0867    0.0000 C   0  0  0  0  0  0  0  0  0  0  0  0
    4.4203    1.3065    0.0000 C   0  0  0  0  0  0  0  0  0  0  0  0
    9.8424   -1.8820    0.0000 C   0  0  0  0  0  0  0  0  0  0  0  0
    4.1108    2.7297    0.0000 C   0  0  0  0  0  0  0  0  0  0  0  0
   10.7403    0.1901    0.0000 C   0  0  0  0  0  0  0  0  0  0  0  0
    3.5877    1.1154    0.0000 C   0  0  0  0  0  0  0  0  0  0  0  0
    3.2741    2.5578    0.0000 C   0  0  0  0  0  0  0  0  0  0  0  0
    3.0108    1.7452    0.0000 C   0  0  0  0  0  0  0  0  0  0  0  0
    7.0380   -2.7297    0.0000 C   0  0  0  0  0  0  0  0  0  0  0  0
   11.5480    0.0217    0.0000 C   0  0  0  0  0  0  0  0  0  0  0  0
   12.0975    0.6369    0.0000 C   0  0  0  0  0  0  0  0  0  0  0  0
    1.6499    2.1803    0.0000 C   0  0  0  0  0  0  0  0  0  0  0  0
   12.9051    0.4684    0.0000 C   0  0  0  0  0  0  0  0  0  0  0  0
   13.4546    1.0836    0.0000 C   0  0  0  0  0  0  0  0  0  0  0  0
   13.1630   -0.3151    0.0000 C   0  0  0  0  0  0  0  0  0  0  0  0
   13.9706   -0.4836    0.0000 C   0  0  0  0  0  0  0  0  0  0  0  0
   14.2623    0.9151    0.0000 C   0  0  0  0  0  0  0  0  0  0  0  0
   14.5202    0.1317    0.0000 C   0  0  0  0  0  0  0  0  0  0  0  0
   13.6789   -1.8823    0.0000 C   0  0  0  0  0  0  0  0  0  0  0  0
   14.5539    2.3139    0.0000 C   0  0  0  0  0  0  0  0  0  0  0  0
   15.8774    0.5784    0.0000 C   0  0  0  0  0  0  0  0  0  0  0  0
 19  1  1  6
  1 28  1  0
 20  2  1  1
  2 30  1  0
  3 25  1  0
  3 34  1  0
  4 25  2  0
  5 30  2  0
  6 33  1  0
  6 37  1  0
  7 41  1  0
  7 44  1  0
  8 42  1  0
  8 45  1  0
  9 43  1  0
  9 46  1  0
 10 16  1  0
 10 17  1  0
 10 22  1  0
 11 21  1  0
 11 27  1  0
 12 13  1  0
 12 14  1  1
 12 15  1  0
 13 17  1  1
 13 18  1  0
 16 14  1  6
 15 19  1  0
 15 25  1  1
 16 21  1  0
 18 20  1  0
 19 20  1  0
 21 23  2  0
 22 24  1  0
 23 24  1  0
 23 26  1  0
 26 27  2  0
 26 29  1  0
 27 31  1  0
 29 32  2  0
 30 35  1  0
 31 33  2  0
 32 33  1  0
 35 36  2  3
 36 38  1  0
 38 39  2  0
 38 40  1  0
 39 42  1  0
 40 41  2  0
 41 43  1  0
 42 43  2  0
M  END
$$$$
