
     RDKit          2D

 62 68  0  0  1  0  0  0  0  0999 V2000
    0.8458   -1.1897    0.0000 C   0  0  0  0  0  0  0  0  0  0  0  0
    2.5189   -0.7993    0.0000 C   0  0  0  0  0  0  0  0  0  0  0  0
    3.1510    0.3068    0.0000 C   0  0  0  0  0  0  0  0  0  0  0  0
    1.2455    1.2363    0.0000 C   0  0  0  0  0  0  0  0  0  0  0  0
    0.2138    1.2363    0.0000 C   0  0  0  0  0  0  0  0  0  0  0  0
   -0.3625    0.6415    0.0000 C   0  0  0  0  0  0  0  0  0  0  0  0
   -1.0969    0.6415    0.0000 C   0  0  0  0  0  0  0  0  0  0  0  0
   -1.4686    0.0000    0.0000 C   0  0  0  0  0  0  0  0  0  0  0  0
   -1.0969   -0.6413    0.0000 C   0  0  0  0  0  0  0  0  0  0  0  0
   -1.4686    1.2735    0.0000 C   0  0  0  0  0  0  0  0  0  0  0  0
    3.1785   -1.2832    0.0000 C   0  0  0  0  0  0  0  0  0  0  0  0
    2.5138   -1.5603    0.0000 O   0  0  0  0  0  0  0  0  0  0  0  0
    3.1440   -1.9400    0.0000 C   0  0  0  0  0  0  0  0  0  0  0  0
    3.8793   -1.5360    0.0000 C   0  0  0  0  0  0  0  0  0  0  0  0
    3.1440   -2.6511    0.0000 O   0  0  0  0  0  0  0  0  0  0  0  0
    1.4552    1.9708    0.0000 O   0  0  0  0  0  0  0  0  0  0  0  0
    0.8008   -2.0693    0.0000 O   0  0  0  0  0  0  0  0  0  0  0  0
   -0.6281   -3.7193    0.0000 C   0  0  0  0  0  0  0  0  0  0  0  0
   -0.6281   -4.5443    0.0000 C   0  0  0  0  0  0  0  0  0  0  0  0
    0.0863   -4.9568    0.0000 C   0  0  0  0  0  0  0  0  0  0  0  0
    0.8008   -4.5443    0.0000 C   0  0  0  0  0  0  0  0  0  0  0  0
    0.8008   -3.7193    0.0000 C   0  0  0  0  0  0  0  0  0  0  0  0
    0.0863   -3.3068    0.0000 C   0  0  0  0  0  0  0  0  0  0  0  0
    0.0863   -2.4818    0.0000 C   0  0  0  0  0  0  0  0  0  0  0  0
   -0.6281   -2.0693    0.0000 O   0  0  0  0  0  0  0  0  0  0  0  0
   -0.1850    2.1000    0.0000 O   0  0  0  0  0  0  0  0  0  0  0  0
   -0.8995    3.3375    0.0000 O   0  0  0  0  0  0  0  0  0  0  0  0
   -0.1850    2.9250    0.0000 C   0  0  0  0  0  0  0  0  0  0  0  0
    0.5295    3.3375    0.0000 C   0  0  0  0  0  0  0  0  0  0  0  0
    1.8776   -0.4368    0.0000 C   0  0  0  0  0  0  0  0  0  0  0  0
    1.8776    0.3068    0.0000 C   0  0  0  0  0  0  0  0  0  0  0  0
    1.8776    1.1318    0.0000 C   0  0  0  0  0  0  0  0  0  0  0  0
   -0.3625   -0.6413    0.0000 C   0  0  0  0  0  0  0  0  0  0  0  0
   -0.3625   -1.4663    0.0000 O   0  0  0  0  0  0  0  0  0  0  0  0
    0.7145    0.4125    0.0000 C   0  0  0  0  0  0  0  0  0  0  0  0
    0.7145   -0.4125    0.0000 C   0  0  0  0  0  0  0  0  0  0  0  0
    2.5189    0.6693    0.0000 C   0  0  0  0  0  0  0  0  0  0  0  0
    2.5189    1.4943    0.0000 O   0  0  0  0  0  0  0  0  0  0  0  0
    3.1510   -0.4368    0.0000 C   0  0  0  0  0  0  0  0  0  0  0  0
    3.8655   -0.8493    0.0000 O   0  0  0  0  0  0  0  0  0  0  0  0
    0.0000    0.0000    0.0000 C   0  0  0  0  0  0  0  0  0  0  0  0
   -2.1161   -0.3725    0.0000 O   0  0  0  0  0  0  0  0  0  0  0  0
   -5.7049    0.0235    0.0000 C   0  0  0  0  0  0  0  0  0  0  0  0
   -6.4194   -0.3890    0.0000 C   0  0  0  0  0  0  0  0  0  0  0  0
   -6.4194   -1.2140    0.0000 C   0  0  0  0  0  0  0  0  0  0  0  0
   -5.7049   -1.6265    0.0000 C   0  0  0  0  0  0  0  0  0  0  0  0
   -4.9740   -0.3890    0.0000 C   0  0  0  0  0  0  0  0  0  0  0  0
   -4.9740   -1.2140    0.0000 C   0  0  0  0  0  0  0  0  0  0  0  0
   -3.5450   -0.3725    0.0000 C   0  0  0  0  0  0  0  0  0  0  0  0
   -4.2595    0.0235    0.0000 C   0  0  0  0  0  0  0  0  0  0  0  0
   -2.8306    0.0400    0.0000 C   0  0  0  0  0  0  0  0  0  0  0  0
   -2.8306    0.8650    0.0000 O   0  0  0  0  0  0  0  0  0  0  0  0
   -3.5450   -1.1975    0.0000 O   0  0  0  0  0  0  0  0  0  0  0  0
   -4.2595    0.8485    0.0000 N   0  0  0  0  0  0  0  0  0  0  0  0
   -5.6884    2.4985    0.0000 C   0  0  0  0  0  0  0  0  0  0  0  0
   -5.6884    3.3235    0.0000 C   0  0  0  0  0  0  0  0  0  0  0  0
   -4.9740    3.7360    0.0000 C   0  0  0  0  0  0  0  0  0  0  0  0
   -4.2595    3.3235    0.0000 C   0  0  0  0  0  0  0  0  0  0  0  0
   -4.2595    2.4985    0.0000 C   0  0  0  0  0  0  0  0  0  0  0  0
   -4.9740    2.0860    0.0000 C   0  0  0  0  0  0  0  0  0  0  0  0
   -4.9740    1.2610    0.0000 C   0  0  0  0  0  0  0  0  0  0  0  0
   -5.6884    0.8485    0.0000 O   0  0  0  0  0  0  0  0  0  0  0  0
  6  7  2  0
  8  7  1  0
  7 10  1  0
 41  6  1  0
  5  6  1  0
  9  8  1  0
 33 41  1  0
 33  9  1  0
  1 33  1  0
 30  1  1  1
 39  3  1  1
 37  3  1  0
  2 39  1  0
 31 37  1  0
 30  2  1  0
  2 11  1  0
 30 31  1  0
  4 31  1  0
  4  5  1  0
  2 12  1  6
 13 12  1  0
 14 13  1  0
 15 13  2  0
  1 17  1  6
 16  4  2  0
  5 26  1  1
  8 42  1  6
 24 17  1  0
 23 18  2  0
 18 19  1  0
 19 20  2  0
 20 21  1  0
 21 22  2  0
 23 22  1  0
 23 24  1  0
 24 25  2  0
 26 28  1  0
 28 27  2  0
 28 29  1  0
 31 32  1  1
 33 34  1  1
 41 35  1  0
 41 36  1  0
 37 38  1  1
 39 40  1  0
 11 40  1  0
 51 42  1  0
 43 44  2  0
 43 47  1  0
 44 45  1  0
 45 46  2  0
 46 48  1  0
 50 47  1  0
 48 47  2  0
 50 49  1  0
 51 49  1  0
 49 53  1  6
 50 54  1  6
 51 52  2  0
 61 54  1  0
 60 55  2  0
 55 56  1  0
 56 57  2  0
 57 58  1  0
 58 59  2  0
 60 59  1  0
 60 61  1  0
 61 62  2  0
M  END
$$$$
