1413
     RDKit          2D

 32 35  0  0  1  0  0  0  0  0999 V2000
    4.6868   -0.2673    0.0000 S   0  0  0  0  0  0  0  0  0  0  0  0
   10.3250   -0.6762    0.0000 S   0  0  0  0  0  0  0  0  0  0  0  0
    6.8152    1.5582    0.0000 O   0  0  0  0  0  0  0  0  0  0  0  0
    5.4012    2.6203    0.0000 O   0  0  0  0  0  0  0  0  0  0  0  0
    3.9722    2.6203    0.0000 O   0  0  0  0  0  0  0  0  0  0  0  0
    7.8278    0.5655    0.0000 O   0  0  0  0  0  0  0  0  0  0  0  0
    7.1823   -1.8238    0.0000 O   0  0  0  0  0  0  0  0  0  0  0  0
    2.5433    0.9702    0.0000 N   0  0  0  0  0  0  0  0  0  0  0  0
    5.4012    0.9702    0.0000 N   0  0  0  0  0  0  0  0  0  0  0  0
    6.8152   -0.4428    0.0000 N   0  0  0  0  0  0  0  0  0  0  0  0
    7.9796   -1.6119    0.0000 N   0  0  0  0  0  0  0  0  0  0  0  0
    9.2894    0.1661    0.0000 N   0  0  0  0  0  0  0  0  0  0  0  0
   10.6337    0.7612    0.0000 N   0  0  0  0  0  0  0  0  0  0  0  0
    2.9558    0.2558    0.0000 C   0  0  0  0  0  0  0  0  0  0  0  0
    1.7363    0.7987    0.0000 C   0  0  0  0  0  0  0  0  0  0  0  0
    3.2577    1.3827    0.0000 C   0  0  0  0  0  0  0  0  0  0  0  0
    2.4037   -0.3573    0.0000 C   0  0  0  0  0  0  0  0  0  0  0  0
    1.6500   -0.0218    0.0000 C   0  0  0  0  0  0  0  0  0  0  0  0
    2.3718    1.7773    0.0000 C   0  0  0  0  0  0  0  0  0  0  0  0
    3.9722    0.9702    0.0000 C   0  0  0  0  0  0  0  0  0  0  0  0
    5.4012    0.1452    0.0000 C   0  0  0  0  0  0  0  0  0  0  0  0
    6.2331    0.1418    0.0000 C   0  0  0  0  0  0  0  0  0  0  0  0
    4.6868    1.3827    0.0000 C   0  0  0  0  0  0  0  0  0  0  0  0
    3.9722    0.1452    0.0000 C   0  0  0  0  0  0  0  0  0  0  0  0
    6.2331    0.9737    0.0000 C   0  0  0  0  0  0  0  0  0  0  0  0
    4.6868    2.2077    0.0000 C   0  0  0  0  0  0  0  0  0  0  0  0
    7.6126   -0.2308    0.0000 C   0  0  0  0  0  0  0  0  0  0  0  0
    8.1947   -0.8154    0.0000 C   0  0  0  0  0  0  0  0  0  0  0  0
    8.9921   -0.6036    0.0000 C   0  0  0  0  0  0  0  0  0  0  0  0
    9.6322   -1.1241    0.0000 C   0  0  0  0  0  0  0  0  0  0  0  0
   10.1132    0.1212    0.0000 C   0  0  0  0  0  0  0  0  0  0  0  0
    6.9671   -2.6203    0.0000 C   0  0  0  0  0  0  0  0  0  0  0  0
 21  1  1  1
  1 24  1  0
  2 30  1  0
  2 31  1  0
  3 25  2  0
  4 26  1  0
  5 26  2  0
  6 27  2  0
  7 11  1  0
  7 32  1  0
  8 14  1  0
  8 15  1  0
  8 16  1  0
  8 19  1  0
  9 21  1  0
  9 23  1  0
  9 25  1  0
 22 10  1  1
 10 27  1  0
 11 28  2  0
 12 29  1  0
 12 31  2  0
 13 31  1  0
 14 17  1  0
 15 18  1  0
 16 20  1  0
 17 18  1  0
 20 23  2  0
 20 24  1  0
 21 22  1  0
 22 25  1  0
 23 26  1  0
 27 28  1  0
 28 29  1  0
 29 30  2  0
M  CHG  2   4  -1   8   1
M  END
$$$$
