1354
     RDKit          2D

 18 19  0  0  0  0  0  0  0  0999 V2000
    3.5679   -1.0775    0.0000 O   0  0  0  0  0  0  0  0  0  0  0  0
    4.9969    1.3976    0.0000 O   0  0  0  0  0  0  0  0  0  0  0  0
    6.4258   -1.0775    0.0000 O   0  0  0  0  0  0  0  0  0  0  0  0
    4.9969   -1.0775    0.0000 N   0  0  0  0  0  0  0  0  0  0  0  0
    5.7113    0.1601    0.0000 N   0  0  0  0  0  0  0  0  0  0  0  0
    4.2823    0.1601    0.0000 C   0  0  0  0  0  0  0  0  0  0  0  0
    3.4573    0.1601    0.0000 C   0  0  0  0  0  0  0  0  0  0  0  0
    3.0994    0.9033    0.0000 C   0  0  0  0  0  0  0  0  0  0  0  0
    2.2950    1.0870    0.0000 C   0  0  0  0  0  0  0  0  0  0  0  0
    3.8698    0.8745    0.0000 C   0  0  0  0  0  0  0  0  0  0  0  0
    1.6500    0.5726    0.0000 C   0  0  0  0  0  0  0  0  0  0  0  0
    1.6500   -0.2525    0.0000 C   0  0  0  0  0  0  0  0  0  0  0  0
    3.0994   -0.5833    0.0000 C   0  0  0  0  0  0  0  0  0  0  0  0
    2.2950   -0.7669    0.0000 C   0  0  0  0  0  0  0  0  0  0  0  0
    4.2823   -0.6650    0.0000 C   0  0  0  0  0  0  0  0  0  0  0  0
    4.9969    0.5726    0.0000 C   0  0  0  0  0  0  0  0  0  0  0  0
    4.2823    1.5890    0.0000 C   0  0  0  0  0  0  0  0  0  0  0  0
    5.7113   -0.6650    0.0000 C   0  0  0  0  0  0  0  0  0  0  0  0
  1 15  2  0
  2 16  2  0
  3 18  2  0
  4 15  1  0
  4 18  1  0
  5 16  1  0
  5 18  1  0
  6  7  1  0
  6 10  1  0
  6 15  1  0
  6 16  1  0
  7  8  1  0
  7 13  2  0
  8  9  1  0
  9 11  1  0
 10 17  1  0
 11 12  1  0
 12 14  1  0
 13 14  1  0
M  END
$$$$
