1166
     RDKit          2D

 27 30  0  0  0  0  0  0  0  0999 V2000
    5.9913   -0.0906    0.0000 O   0  0  0  0  0  0  0  0  0  0  0  0
    1.6500   -1.7606    0.0000 O   0  0  0  0  0  0  0  0  0  0  0  0
   10.3176   -0.1509    0.0000 N   0  0  0  0  0  0  0  0  0  0  0  0
   10.8720   -0.7618    0.0000 N   0  0  0  0  0  0  0  0  0  0  0  0
    9.6546   -1.3094    0.0000 N   0  0  0  0  0  0  0  0  0  0  0  0
   10.4622   -1.4779    0.0000 N   0  0  0  0  0  0  0  0  0  0  0  0
    3.0790   -1.7606    0.0000 N   0  0  0  0  0  0  0  0  0  0  0  0
   10.4860    0.6568    0.0000 C   0  0  0  0  0  0  0  0  0  0  0  0
    9.8708    1.2064    0.0000 C   0  0  0  0  0  0  0  0  0  0  0  0
   11.2697    0.9148    0.0000 C   0  0  0  0  0  0  0  0  0  0  0  0
   10.0392    2.0141    0.0000 C   0  0  0  0  0  0  0  0  0  0  0  0
   11.4380    1.7224    0.0000 C   0  0  0  0  0  0  0  0  0  0  0  0
   10.8228    2.2721    0.0000 C   0  0  0  0  0  0  0  0  0  0  0  0
    9.5652   -0.4893    0.0000 C   0  0  0  0  0  0  0  0  0  0  0  0
    8.8492   -0.0796    0.0000 C   0  0  0  0  0  0  0  0  0  0  0  0
    8.1363   -0.4948    0.0000 C   0  0  0  0  0  0  0  0  0  0  0  0
    7.4202   -0.0851    0.0000 C   0  0  0  0  0  0  0  0  0  0  0  0
    6.7073   -0.5004    0.0000 C   0  0  0  0  0  0  0  0  0  0  0  0
    3.7934   -0.5231    0.0000 C   0  0  0  0  0  0  0  0  0  0  0  0
    3.0790   -0.1106    0.0000 C   0  0  0  0  0  0  0  0  0  0  0  0
    3.7934   -1.3480    0.0000 C   0  0  0  0  0  0  0  0  0  0  0  0
    2.3645   -0.5231    0.0000 C   0  0  0  0  0  0  0  0  0  0  0  0
    5.2784   -0.5058    0.0000 C   0  0  0  0  0  0  0  0  0  0  0  0
    4.5309   -0.0819    0.0000 C   0  0  0  0  0  0  0  0  0  0  0  0
    2.3645   -1.3480    0.0000 C   0  0  0  0  0  0  0  0  0  0  0  0
    4.5309   -1.7891    0.0000 C   0  0  0  0  0  0  0  0  0  0  0  0
    5.2784   -1.3652    0.0000 C   0  0  0  0  0  0  0  0  0  0  0  0
  1 18  1  0
  1 23  1  0
  2 25  2  0
  3  4  1  0
  3  8  1  0
  3 14  1  0
  4  6  2  0
  5  6  1  0
  5 14  2  0
  7 21  1  0
  7 25  1  0
  8  9  1  0
  8 10  1  0
  9 11  1  0
 10 12  1  0
 11 13  1  0
 12 13  1  0
 14 15  1  0
 15 16  1  0
 16 17  1  0
 17 18  1  0
 19 20  1  0
 19 21  2  0
 19 24  1  0
 20 22  1  0
 21 26  1  0
 22 25  1  0
 23 24  2  0
 23 27  1  0
 26 27  2  0
M  END
$$$$
