1466
     RDKit          2D

 23 27  0  0  1  0  0  0  0  0999 V2000
    2.6868   -0.3359    0.0000 O   0  0  0  0  0  0  0  0  0  0  0  0
    2.4860   -2.4654    0.0000 O   0  0  0  0  0  0  0  0  0  0  0  0
    2.4860    1.7020    0.0000 O   0  0  0  0  0  0  0  0  0  0  0  0
    6.0951   -1.2067    0.0000 N   0  0  0  0  0  0  0  0  0  0  0  0
    3.9517   -0.7941    0.0000 C   0  0  0  0  0  0  0  0  0  0  0  0
    4.6662   -1.2067    0.0000 C   0  0  0  0  0  0  0  0  0  0  0  0
    5.3806   -0.7941    0.0000 C   0  0  0  0  0  0  0  0  0  0  0  0
    3.2372   -1.2067    0.0000 C   0  0  0  0  0  0  0  0  0  0  0  0
    4.4284   -0.1892    0.0000 C   0  0  0  0  0  0  0  0  0  0  0  0
    3.9517    0.0308    0.0000 C   0  0  0  0  0  0  0  0  0  0  0  0
    5.3806    0.0308    0.0000 C   0  0  0  0  0  0  0  0  0  0  0  0
    5.6017   -0.1892    0.0000 C   0  0  0  0  0  0  0  0  0  0  0  0
    4.6662    0.4433    0.0000 C   0  0  0  0  0  0  0  0  0  0  0  0
    3.2372   -2.0317    0.0000 C   0  0  0  0  0  0  0  0  0  0  0  0
    4.6662   -2.0317    0.0000 C   0  0  0  0  0  0  0  0  0  0  0  0
    3.2372    0.4433    0.0000 C   0  0  0  0  0  0  0  0  0  0  0  0
    3.9517   -2.4441    0.0000 C   0  0  0  0  0  0  0  0  0  0  0  0
    4.6662    1.2683    0.0000 C   0  0  0  0  0  0  0  0  0  0  0  0
    6.6859   -1.8417    0.0000 C   0  0  0  0  0  0  0  0  0  0  0  0
    3.2372    1.2683    0.0000 C   0  0  0  0  0  0  0  0  0  0  0  0
    3.9517    1.6808    0.0000 C   0  0  0  0  0  0  0  0  0  0  0  0
    2.4860    2.5694    0.0000 C   0  0  0  0  0  0  0  0  0  0  0  0
    1.7348    3.0032    0.0000 C   0  0  0  0  0  0  0  0  0  0  0  0
  8  1  1  6
  1 16  1  0
 14  2  1  6
  3 20  1  0
  3 22  1  0
  4  7  1  0
  4 12  1  0
  4 19  1  0
  5  6  1  0
  5  8  1  0
  5  9  1  1
  5 10  1  0
  6  7  1  0
  6 15  1  6
  7 11  1  1
  8 14  1  0
  9 12  1  0
 10 13  2  0
 10 16  1  0
 11 13  1  0
 13 18  1  0
 14 17  1  0
 15 17  2  0
 16 20  2  0
 18 21  2  0
 20 21  1  0
 22 23  1  0
M  END
$$$$
