1218
     RDKit          2D

 33 35  0  0  1  0  0  0  0  0999 V2000
    7.4502    1.8251    0.0000 Cl  0  0  0  0  0  0  0  0  0  0  0  0
    5.9997    4.3598    0.0000 Cl  0  0  0  0  0  0  0  0  0  0  0  0
    2.7781    2.9730    0.0000 F   0  0  0  0  0  0  0  0  0  0  0  0
    1.9477    1.5472    0.0000 F   0  0  0  0  0  0  0  0  0  0  0  0
    1.6500    2.6754    0.0000 F   0  0  0  0  0  0  0  0  0  0  0  0
    4.5608   -0.6473    0.0000 O   0  0  0  0  0  0  0  0  0  0  0  0
    6.7043   -1.8848    0.0000 N   0  0  0  0  0  0  0  0  0  0  0  0
    5.9897   -1.4723    0.0000 C   0  0  0  0  0  0  0  0  0  0  0  0
    5.9897   -0.6473    0.0000 C   0  0  0  0  0  0  0  0  0  0  0  0
    5.2753   -0.2348    0.0000 C   0  0  0  0  0  0  0  0  0  0  0  0
    6.7043   -2.7098    0.0000 C   0  0  0  0  0  0  0  0  0  0  0  0
    7.4187   -1.4723    0.0000 C   0  0  0  0  0  0  0  0  0  0  0  0
    5.2753    0.5902    0.0000 C   0  0  0  0  0  0  0  0  0  0  0  0
    7.4187   -3.1223    0.0000 C   0  0  0  0  0  0  0  0  0  0  0  0
    8.1332   -1.8848    0.0000 C   0  0  0  0  0  0  0  0  0  0  0  0
    4.5608    1.0027    0.0000 C   0  0  0  0  0  0  0  0  0  0  0  0
    4.5608    1.8277    0.0000 C   0  0  0  0  0  0  0  0  0  0  0  0
    5.9897    1.0027    0.0000 C   0  0  0  0  0  0  0  0  0  0  0  0
    5.2753    2.2402    0.0000 C   0  0  0  0  0  0  0  0  0  0  0  0
    5.9897    1.8277    0.0000 C   0  0  0  0  0  0  0  0  0  0  0  0
    7.4187   -3.9473    0.0000 C   0  0  0  0  0  0  0  0  0  0  0  0
    8.8476   -1.4723    0.0000 C   0  0  0  0  0  0  0  0  0  0  0  0
    3.8233    0.5616    0.0000 C   0  0  0  0  0  0  0  0  0  0  0  0
    3.8233    2.2688    0.0000 C   0  0  0  0  0  0  0  0  0  0  0  0
    3.0758    1.8449    0.0000 C   0  0  0  0  0  0  0  0  0  0  0  0
    5.2621    3.0995    0.0000 C   0  0  0  0  0  0  0  0  0  0  0  0
    3.0758    0.9856    0.0000 C   0  0  0  0  0  0  0  0  0  0  0  0
    6.7405    2.2458    0.0000 C   0  0  0  0  0  0  0  0  0  0  0  0
    8.1332   -4.3598    0.0000 C   0  0  0  0  0  0  0  0  0  0  0  0
    9.5622   -1.8848    0.0000 C   0  0  0  0  0  0  0  0  0  0  0  0
    6.0029    3.5348    0.0000 C   0  0  0  0  0  0  0  0  0  0  0  0
    6.7472    3.1052    0.0000 C   0  0  0  0  0  0  0  0  0  0  0  0
    2.3629    2.2601    0.0000 C   0  0  0  0  0  0  0  0  0  0  0  0
  1 28  1  0
  2 31  1  0
  3 33  1  0
  4 33  1  0
  5 33  1  0
  6 10  1  0
  7  8  1  0
  7 11  1  0
  7 12  1  0
  8  9  1  0
  9 10  1  0
 10 13  1  0
 11 14  1  0
 12 15  1  0
 13 16  2  0
 13 18  1  0
 14 21  1  0
 15 22  1  0
 16 17  1  0
 16 23  1  0
 17 19  2  0
 17 24  1  0
 18 20  2  0
 19 20  1  0
 19 26  1  0
 20 28  1  0
 21 29  1  0
 22 30  1  0
 23 27  2  0
 24 25  2  0
 25 27  1  0
 25 33  1  0
 26 31  2  0
 28 32  2  0
 31 32  1  0
M  END
$$$$
