1511
     RDKit          2D

 20 22  0  0  0  0  0  0  0  0999 V2000
    2.5466   -2.3592    0.0000 Cl  0  0  0  0  0  0  0  0  0  0  0  0
    3.6079   -1.4649    0.0000 Cl  0  0  0  0  0  0  0  0  0  0  0  0
    2.3402    2.3592    0.0000 O   0  0  0  0  0  0  0  0  0  0  0  0
    2.1838    0.9709    0.0000 N   0  0  0  0  0  0  0  0  0  0  0  0
    4.0374    0.9709    0.0000 N   0  0  0  0  0  0  0  0  0  0  0  0
    3.1106   -0.1914    0.0000 C   0  0  0  0  0  0  0  0  0  0  0  0
    3.8539    0.1666    0.0000 C   0  0  0  0  0  0  0  0  0  0  0  0
    2.3673    0.1666    0.0000 C   0  0  0  0  0  0  0  0  0  0  0  0
    4.4988   -0.3478    0.0000 C   0  0  0  0  0  0  0  0  0  0  0  0
    3.1880   -1.0472    0.0000 C   0  0  0  0  0  0  0  0  0  0  0  0
    3.5230    1.6159    0.0000 C   0  0  0  0  0  0  0  0  0  0  0  0
    1.6499   -0.3065    0.0000 C   0  0  0  0  0  0  0  0  0  0  0  0
    2.6981    1.6159    0.0000 C   0  0  0  0  0  0  0  0  0  0  0  0
    2.4818   -1.5367    0.0000 C   0  0  0  0  0  0  0  0  0  0  0  0
    1.7075   -1.1639    0.0000 C   0  0  0  0  0  0  0  0  0  0  0  0
    4.3759   -1.1635    0.0000 C   0  0  0  0  0  0  0  0  0  0  0  0
    5.2668   -0.0464    0.0000 C   0  0  0  0  0  0  0  0  0  0  0  0
    5.0209   -1.6779    0.0000 C   0  0  0  0  0  0  0  0  0  0  0  0
    5.9118   -0.5607    0.0000 C   0  0  0  0  0  0  0  0  0  0  0  0
    5.7888   -1.3765    0.0000 C   0  0  0  0  0  0  0  0  0  0  0  0
  1 14  1  0
  2 16  1  0
  3 13  2  0
  4  8  1  0
  4 13  1  0
  5  7  2  0
  5 11  1  0
  6  7  1  0
  6  8  2  0
  6 10  1  0
  7  9  1  0
  8 12  1  0
  9 16  2  0
  9 17  1  0
 10 14  2  0
 11 13  1  0
 12 15  2  0
 14 15  1  0
 16 18  1  0
 17 19  2  0
 18 20  2  0
 19 20  1  0
M  END
$$$$
