1608
     RDKit          2D

 26 29  0  0  0  0  0  0  0  0999 V2000
    5.2216   -2.9223    0.0000 S   0  0  0  0  0  0  0  0  0  0  0  0
    1.6498    2.4395    0.0000 O   0  0  0  0  0  0  0  0  0  0  0  0
    3.7929    1.2021    0.0000 N   0  0  0  0  0  0  0  0  0  0  0  0
    5.2216   -1.2725    0.0000 N   0  0  0  0  0  0  0  0  0  0  0  0
    8.8463   -0.8374    0.0000 N   0  0  0  0  0  0  0  0  0  0  0  0
    3.0786    0.7897    0.0000 C   0  0  0  0  0  0  0  0  0  0  0  0
    3.7929    2.0270    0.0000 C   0  0  0  0  0  0  0  0  0  0  0  0
    2.3641    2.0270    0.0000 C   0  0  0  0  0  0  0  0  0  0  0  0
    2.3641    1.2021    0.0000 C   0  0  0  0  0  0  0  0  0  0  0  0
    3.0786    2.4395    0.0000 C   0  0  0  0  0  0  0  0  0  0  0  0
    4.5073    0.7897    0.0000 C   0  0  0  0  0  0  0  0  0  0  0  0
    4.5073   -0.0352    0.0000 C   0  0  0  0  0  0  0  0  0  0  0  0
    5.2216   -0.4476    0.0000 C   0  0  0  0  0  0  0  0  0  0  0  0
    5.9361   -1.6850    0.0000 C   0  0  0  0  0  0  0  0  0  0  0  0
    4.5073   -1.6850    0.0000 C   0  0  0  0  0  0  0  0  0  0  0  0
    5.9361   -2.5099    0.0000 C   0  0  0  0  0  0  0  0  0  0  0  0
    4.5073   -2.5099    0.0000 C   0  0  0  0  0  0  0  0  0  0  0  0
    6.6734   -1.2439    0.0000 C   0  0  0  0  0  0  0  0  0  0  0  0
    3.7699   -1.2439    0.0000 C   0  0  0  0  0  0  0  0  0  0  0  0
    6.6734   -2.9509    0.0000 C   0  0  0  0  0  0  0  0  0  0  0  0
    3.7699   -2.9509    0.0000 C   0  0  0  0  0  0  0  0  0  0  0  0
    7.4209   -1.6679    0.0000 C   0  0  0  0  0  0  0  0  0  0  0  0
    3.0225   -1.6679    0.0000 C   0  0  0  0  0  0  0  0  0  0  0  0
    7.4209   -2.5271    0.0000 C   0  0  0  0  0  0  0  0  0  0  0  0
    3.0225   -2.5271    0.0000 C   0  0  0  0  0  0  0  0  0  0  0  0
    8.1336   -1.2526    0.0000 C   0  0  0  0  0  0  0  0  0  0  0  0
  1 16  1  0
  1 17  1  0
  2  8  1  0
  3  6  1  0
  3  7  1  0
  3 11  1  0
  4 13  1  0
  4 14  1  0
  4 15  1  0
  5 26  3  0
  6  9  1  0
  7 10  1  0
  8  9  1  0
  8 10  1  0
 11 12  1  0
 12 13  1  0
 14 16  2  0
 14 18  1  0
 15 17  2  0
 15 19  1  0
 16 20  1  0
 17 21  1  0
 18 22  2  0
 19 23  2  0
 20 24  2  0
 21 25  2  0
 22 24  1  0
 22 26  1  0
 23 25  1  0
M  END
$$$$
