
     RDKit          2D

 16 16  0  0  1  0  0  0  0  0999 V2000
    4.1890   -6.4628    0.0000 C   0  0  0  0  0  0  0  0  0  0  0  0
    4.9035   -6.0503    0.0000 C   0  0  0  0  0  0  0  0  0  0  0  0
    5.6179   -6.4628    0.0000 C   0  0  0  0  0  0  0  0  0  0  0  0
    6.3324   -6.0503    0.0000 C   0  0  0  0  0  0  0  0  0  0  0  0
    4.1890   -7.2879    0.0000 F   0  0  0  0  0  0  0  0  0  0  0  0
    3.4745   -6.0503    0.0000 F   0  0  0  0  0  0  0  0  0  0  0  0
    7.0469   -6.4628    0.0000 C   0  0  0  0  0  0  0  0  0  0  0  0
    7.7614   -5.2253    0.0000 N   0  0  0  0  0  0  0  0  0  0  0  0
    4.9035   -5.2253    0.0000 C   0  0  0  0  0  0  0  0  0  0  0  0
    7.7614   -6.0503    0.0000 C   0  0  0  0  0  0  0  0  0  0  0  0
    5.6179   -4.8128    0.0000 C   0  0  0  0  0  0  0  0  0  0  0  0
    6.3324   -5.2253    0.0000 C   0  0  0  0  0  0  0  0  0  0  0  0
    8.4759   -6.4628    0.0000 C   0  0  0  0  0  0  0  0  0  0  0  0
    3.4690   -6.8822    0.0000 F   0  0  0  0  0  0  0  0  0  0  0  0
    7.0469   -4.8128    0.0000 C   0  0  0  0  0  0  0  0  0  0  0  0
    7.0469   -3.9878    0.0000 C   0  0  0  0  0  0  0  0  0  0  0  0
  2  1  1  0
  5  1  1  0
  6  1  1  0
  3  2  2  0
  9  2  1  0
  4  3  1  0
  7  4  1  0
 12  4  2  0
 10  7  1  0
 10  8  1  0
 11  9  2  0
 10 13  1  1
 12 11  1  0
  1 14  1  0
  8 15  1  0
 15 16  1  0
M  END
$$$$
