1254
     RDKit          2D

 33 36  0  0  0  0  0  0  0  0999 V2000
    2.2082   -5.4426    0.0000 Cl  0  0  0  0  0  0  0  0  0  0  0  0
    2.9849   -1.7295    0.0000 S   0  0  0  0  0  0  0  0  0  0  0  0
    4.4610    5.7681    0.0000 O   0  0  0  0  0  0  0  0  0  0  0  0
    4.0354   -3.0953    0.0000 O   0  0  0  0  0  0  0  0  0  0  0  0
    3.7465    3.7056    0.0000 N   0  0  0  0  0  0  0  0  0  0  0  0
    3.7465    2.0555    0.0000 N   0  0  0  0  0  0  0  0  0  0  0  0
    4.4610    0.8180    0.0000 N   0  0  0  0  0  0  0  0  0  0  0  0
    3.7465   -0.4195    0.0000 N   0  0  0  0  0  0  0  0  0  0  0  0
    2.3175   -0.4195    0.0000 N   0  0  0  0  0  0  0  0  0  0  0  0
    1.6500   -1.7295    0.0000 N   0  0  0  0  0  0  0  0  0  0  0  0
    2.8794   -3.9353    0.0000 N   0  0  0  0  0  0  0  0  0  0  0  0
    3.0319    3.2931    0.0000 C   0  0  0  0  0  0  0  0  0  0  0  0
    4.4610    3.2931    0.0000 C   0  0  0  0  0  0  0  0  0  0  0  0
    3.0319    2.4680    0.0000 C   0  0  0  0  0  0  0  0  0  0  0  0
    4.4610    2.4680    0.0000 C   0  0  0  0  0  0  0  0  0  0  0  0
    3.7465    4.5306    0.0000 C   0  0  0  0  0  0  0  0  0  0  0  0
    3.7465    1.2305    0.0000 C   0  0  0  0  0  0  0  0  0  0  0  0
    4.4610    4.9431    0.0000 C   0  0  0  0  0  0  0  0  0  0  0  0
    3.0319    0.8180    0.0000 C   0  0  0  0  0  0  0  0  0  0  0  0
    3.0319   -0.0070    0.0000 C   0  0  0  0  0  0  0  0  0  0  0  0
    4.4610   -0.0070    0.0000 C   0  0  0  0  0  0  0  0  0  0  0  0
    5.1754   -0.4195    0.0000 C   0  0  0  0  0  0  0  0  0  0  0  0
    2.3175   -1.2445    0.0000 C   0  0  0  0  0  0  0  0  0  0  0  0
    2.7300   -2.5141    0.0000 C   0  0  0  0  0  0  0  0  0  0  0  0
    3.3643   -4.6027    0.0000 C   0  0  0  0  0  0  0  0  0  0  0  0
    1.9050   -2.5141    0.0000 C   0  0  0  0  0  0  0  0  0  0  0  0
    4.1848   -4.5165    0.0000 C   0  0  0  0  0  0  0  0  0  0  0  0
    3.2149   -3.1816    0.0000 C   0  0  0  0  0  0  0  0  0  0  0  0
    3.0287   -5.3564    0.0000 C   0  0  0  0  0  0  0  0  0  0  0  0
    4.6698   -5.1839    0.0000 C   0  0  0  0  0  0  0  0  0  0  0  0
    4.5204   -3.7628    0.0000 C   0  0  0  0  0  0  0  0  0  0  0  0
    3.5137   -6.0239    0.0000 C   0  0  0  0  0  0  0  0  0  0  0  0
    4.3342   -5.9377    0.0000 C   0  0  0  0  0  0  0  0  0  0  0  0
  1 29  1  0
  2 23  1  0
  2 24  1  0
  3 18  1  0
  4 28  2  0
  5 12  1  0
  5 13  1  0
  5 16  1  0
  6 14  1  0
  6 15  1  0
  6 17  1  0
  7 17  2  0
  7 21  1  0
  8 20  1  0
  8 21  2  0
  9 20  1  0
  9 23  1  0
 10 23  2  0
 10 26  1  0
 11 25  1  0
 11 28  1  0
 12 14  1  0
 13 15  1  0
 16 18  1  0
 17 19  1  0
 19 20  2  0
 21 22  1  0
 24 26  2  0
 24 28  1  0
 25 27  2  0
 25 29  1  0
 27 30  1  0
 27 31  1  0
 29 32  2  0
 30 33  2  0
 32 33  1  0
M  END
$$$$
