 
     RDKit          2D

 26 28  0  0  0  0  0  0  0  0999 V2000
    9.4462   -9.1575    0.0000 C   0  0  0  0  0  0  0  0  0  0  0  0
    9.4462   -9.9825    0.0000 C   0  0  0  0  0  0  0  0  0  0  0  0
   10.1607  -10.3950    0.0000 C   0  0  0  0  0  0  0  0  0  0  0  0
   10.8752   -9.9825    0.0000 C   0  0  0  0  0  0  0  0  0  0  0  0
   10.8752   -9.1575    0.0000 C   0  0  0  0  0  0  0  0  0  0  0  0
   10.1607   -8.7450    0.0000 C   0  0  0  0  0  0  0  0  0  0  0  0
   11.5897  -10.3950    0.0000 C   0  0  0  0  0  0  0  0  0  0  0  0
   12.3041   -9.9825    0.0000 C   0  0  0  0  0  0  0  0  0  0  0  0
   12.3041   -9.1575    0.0000 C   0  0  0  0  0  0  0  0  0  0  0  0
   11.5897   -8.7450    0.0000 O   0  0  0  0  0  0  0  0  0  0  0  0
   13.0186  -10.3950    0.0000 C   0  0  0  0  0  0  0  0  0  0  0  0
   13.7331   -9.9825    0.0000 C   0  0  0  0  0  0  0  0  0  0  0  0
   13.7331   -9.1575    0.0000 C   0  0  0  0  0  0  0  0  0  0  0  0
   13.0186   -8.7450    0.0000 O   0  0  0  0  0  0  0  0  0  0  0  0
   14.4475  -10.3950    0.0000 C   0  0  0  0  0  0  0  0  0  0  0  0
   15.1620   -9.9825    0.0000 C   0  0  0  0  0  0  0  0  0  0  0  0
   15.1620   -9.1575    0.0000 C   0  0  0  0  0  0  0  0  0  0  0  0
   14.4475   -8.7450    0.0000 C   0  0  0  0  0  0  0  0  0  0  0  0
   11.5897  -11.2200    0.0000 O   0  0  0  0  0  0  0  0  0  0  0  0
   13.0186  -11.2198    0.0000 C   0  0  0  0  0  0  0  0  0  0  0  0
   13.7453  -11.6396    0.0000 C   0  0  0  0  0  0  0  0  0  0  0  0
   14.4561  -11.2294    0.0000 C   0  0  0  0  0  0  0  0  0  0  0  0
   13.7451  -12.4574    0.0000 O   0  0  0  0  0  0  0  0  0  0  0  0
   15.8899   -8.7371    0.0000 N   0  0  0  0  0  0  0  0  0  0  0  0
   16.6013   -9.1477    0.0000 O   0  0  0  0  0  0  0  0  0  0  0  0
   15.8896   -7.9201    0.0000 O   0  0  0  0  0  0  0  0  0  0  0  0
  1  2  2  0
  2  3  1  0
  3  4  2  0
  4  5  1  0
  5  6  2  0
  1  6  1  0
  4  7  1  0
  7  8  2  0
  8  9  1  0
  9 10  1  0
  5 10  1  0
  8 11  1  0
 11 12  1  0
 12 13  2  0
  9 14  2  0
 12 15  1  0
 15 16  2  0
 16 17  1  0
 17 18  2  0
 13 18  1  0
  7 19  1  0
 11 20  1  0
 20 21  1  0
 21 22  1  0
 21 23  2  0
 17 24  1  0
 24 25  1  0
 24 26  2  0
M  CHG  2  24   1  25  -1
M  END
$$$$
