1236
     RDKit          2D

 12 11  0  0  0  0  0  0  0  0999 V2000
    1.6500    1.2928    0.0000 F   0  0  0  0  0  0  0  0  0  0  0  0
    1.9520    0.1658    0.0000 F   0  0  0  0  0  0  0  0  0  0  0  0
    2.7770    1.5948    0.0000 F   0  0  0  0  0  0  0  0  0  0  0  0
    4.5080    1.2928    0.0000 F   0  0  0  0  0  0  0  0  0  0  0  0
    4.2060    0.1658    0.0000 F   0  0  0  0  0  0  0  0  0  0  0  0
    3.3810    1.5948    0.0000 F   0  0  0  0  0  0  0  0  0  0  0  0
    2.3645   -1.5948    0.0000 F   0  0  0  0  0  0  0  0  0  0  0  0
    3.0791   -0.3572    0.0000 O   0  0  0  0  0  0  0  0  0  0  0  0
    3.0791    0.4678    0.0000 C   0  0  0  0  0  0  0  0  0  0  0  0
    2.3645    0.8803    0.0000 C   0  0  0  0  0  0  0  0  0  0  0  0
    3.7935    0.8803    0.0000 C   0  0  0  0  0  0  0  0  0  0  0  0
    2.3645   -0.7697    0.0000 C   0  0  0  0  0  0  0  0  0  0  0  0
  1 10  1  0
  2 10  1  0
  3 10  1  0
  4 11  1  0
  5 11  1  0
  6 11  1  0
  7 12  1  0
  8  9  1  0
  8 12  1  0
  9 10  1  0
  9 11  1  0
M  END
$$$$
