1156
     RDKit          2D

 16 16  0  0  1  0  0  0  0  0999 V2000
    1.6500   -2.4198    0.0000 Cl  0  0  0  0  0  0  0  0  0  0  0  0
    2.3645    0.4678    0.0000 O   0  0  0  0  0  0  0  0  0  0  0  0
    3.7935    1.2928    0.0000 N   0  0  0  0  0  0  0  0  0  0  0  0
    4.5080    1.7053    0.0000 C   0  0  0  0  0  0  0  0  0  0  0  0
    3.7935    0.4678    0.0000 C   0  0  0  0  0  0  0  0  0  0  0  0
    5.2224    2.1178    0.0000 C   0  0  0  0  0  0  0  0  0  0  0  0
    4.0955    2.4198    0.0000 C   0  0  0  0  0  0  0  0  0  0  0  0
    4.9205    0.9908    0.0000 C   0  0  0  0  0  0  0  0  0  0  0  0
    4.5080    0.0553    0.0000 C   0  0  0  0  0  0  0  0  0  0  0  0
    3.0791    0.0553    0.0000 C   0  0  0  0  0  0  0  0  0  0  0  0
    3.0791   -0.7697    0.0000 C   0  0  0  0  0  0  0  0  0  0  0  0
    2.3645   -1.1823    0.0000 C   0  0  0  0  0  0  0  0  0  0  0  0
    3.7935   -1.1823    0.0000 C   0  0  0  0  0  0  0  0  0  0  0  0
    2.3645   -2.0073    0.0000 C   0  0  0  0  0  0  0  0  0  0  0  0
    3.7935   -2.0073    0.0000 C   0  0  0  0  0  0  0  0  0  0  0  0
    3.0791   -2.4198    0.0000 C   0  0  0  0  0  0  0  0  0  0  0  0
  1 14  1  0
  2 10  2  0
  3  4  1  0
  3  5  1  0
  4  6  1  0
  4  7  1  0
  4  8  1  0
  5  9  1  0
  5 10  1  0
 10 11  1  0
 11 12  2  0
 11 13  1  0
 12 14  1  0
 13 15  2  0
 14 16  2  0
 15 16  1  0
M  END
$$$$
