 
     RDKit          2D

 40 45  0  0  1  0  0  0  0  0999 V2000
   16.1818  -10.7652    0.0000 C   0  0  0  0  0  0  0  0  0  0  0  0
   16.2136  -11.5865    0.0000 C   0  0  0  0  0  0  0  0  0  0  0  0
   16.9005  -10.3615    0.0000 C   0  0  0  0  0  0  0  0  0  0  0  0
   15.4773  -10.3439    0.0000 C   0  0  0  0  0  0  0  0  0  0  0  0
   16.1996   -9.9792    0.0000 C   0  0  0  0  0  0  0  0  0  0  0  0
   15.4631  -11.9938    0.0000 C   0  0  0  0  0  0  0  0  0  0  0  0
   17.5980  -11.5618    0.0000 C   0  0  0  0  0  0  0  0  0  0  0  0
   17.6087  -10.7828    0.0000 C   0  0  0  0  0  0  0  0  0  0  0  0
   16.9077   -9.3562    0.0000 O   0  0  0  0  0  0  0  0  0  0  0  0
   14.7585  -10.7546    0.0000 C   0  0  0  0  0  0  0  0  0  0  0  0
   14.7514  -11.5760    0.0000 C   0  0  0  0  0  0  0  0  0  0  0  0
   15.4631  -12.8186    0.0000 C   0  0  0  0  0  0  0  0  0  0  0  0
   18.3274  -10.3757    0.0000 N   0  0  0  0  0  0  0  0  0  0  0  0
   16.1961   -8.9314    0.0000 C   0  0  0  0  0  0  0  0  0  0  0  0
   14.0327  -11.9831    0.0000 C   0  0  0  0  0  0  0  0  0  0  0  0
   14.7443  -13.2293    0.0000 C   0  0  0  0  0  0  0  0  0  0  0  0
   19.0355  -10.8006    0.0000 C   0  0  0  0  0  0  0  0  0  0  0  0
   18.3345   -9.5543    0.0000 C   0  0  0  0  0  0  0  0  0  0  0  0
   18.3309  -11.3565    0.0000 C   0  0  0  0  0  0  0  0  0  0  0  0
   15.4739   -9.3385    0.0000 C   0  0  0  0  0  0  0  0  0  0  0  0
   16.2067   -8.1064    0.0000 O   0  0  0  0  0  0  0  0  0  0  0  0
   14.0292  -12.8151    0.0000 C   0  0  0  0  0  0  0  0  0  0  0  0
   13.3176  -11.5724    0.0000 C   0  0  0  0  0  0  0  0  0  0  0  0
   14.0258  -11.1900    0.0000 C   0  0  0  0  0  0  0  0  0  0  0  0
   19.7541  -10.3970    0.0000 C   0  0  0  0  0  0  0  0  0  0  0  0
   19.0532   -9.1471    0.0000 C   0  0  0  0  0  0  0  0  0  0  0  0
   13.3176  -13.2259    0.0000 C   0  0  0  0  0  0  0  0  0  0  0  0
   12.6060  -11.9831    0.0000 C   0  0  0  0  0  0  0  0  0  0  0  0
   19.7648   -9.5720    0.0000 C   0  0  0  0  0  0  0  0  0  0  0  0
   12.6060  -12.8151    0.0000 C   0  0  0  0  0  0  0  0  0  0  0  0
   11.8022  -11.4484    0.0000 N   0  0  0  0  0  0  0  0  0  0  0  0
   11.8873  -13.2259    0.0000 O   0  0  0  0  0  0  0  0  0  0  0  0
   11.8058  -10.6271    0.0000 C   0  0  0  0  0  0  0  0  0  0  0  0
   11.0906  -11.8628    0.0000 C   0  0  0  0  0  0  0  0  0  0  0  0
   11.8873  -14.0507    0.0000 C   0  0  0  0  0  0  0  0  0  0  0  0
   11.0906  -10.2129    0.0000 C   0  0  0  0  0  0  0  0  0  0  0  0
   10.3755  -11.4521    0.0000 C   0  0  0  0  0  0  0  0  0  0  0  0
   11.1720  -14.4649    0.0000 C   0  0  0  0  0  0  0  0  0  0  0  0
   12.6060  -14.4649    0.0000 O   0  0  0  0  0  0  0  0  0  0  0  0
   10.3790  -10.6271    0.0000 C   0  0  0  0  0  0  0  0  0  0  0  0
  1  2  1  0
  1  3  1  0
  1  4  1  0
  1  5  1  1
  2  6  1  0
  2  7  1  1
  3  8  1  0
  3  9  1  1
  4 10  1  0
  6 11  1  0
  6 12  1  6
  8 13  1  1
  9 14  1  0
 11 15  1  0
 12 16  1  0
 13 17  1  0
 13 18  1  0
 13 19  1  0
 14 20  1  0
 14 21  2  0
 15 22  1  0
 15 23  1  0
 15 24  1  1
 17 25  1  0
 18 26  1  0
 22 27  1  1
 23 28  1  0
 25 29  1  0
 27 30  1  0
 28 31  1  1
 30 32  1  6
 31 33  1  0
 31 34  1  0
 32 35  1  0
 33 36  1  0
 34 37  1  0
 35 38  1  0
 35 39  2  0
 36 40  1  0
  7  8  1  0
 11 10  1  1
 16 22  1  0
 26 29  1  0
 28 30  1  0
 37 40  1  0
M  CHG  1  13   1
M  END
$$$$
