1625
     RDKit          2D

 26 27  0  0  0  0  0  0  0  0999 V2000
    6.1876    0.7145    0.0000 O   0  0  0  0  0  0  0  0  0  0  0  0
    2.8876    0.7145    0.0000 N   0  0  0  0  0  0  0  0  0  0  0  0
    6.4896   -0.4125    0.0000 N   0  0  0  0  0  0  0  0  0  0  0  0
    3.7126    0.7145    0.0000 C   0  0  0  0  0  0  0  0  0  0  0  0
    2.8876    1.5395    0.0000 C   0  0  0  0  0  0  0  0  0  0  0  0
    2.0625    0.7145    0.0000 C   0  0  0  0  0  0  0  0  0  0  0  0
    4.1251    0.0000    0.0000 C   0  0  0  0  0  0  0  0  0  0  0  0
    2.8876   -0.1106    0.0000 C   0  0  0  0  0  0  0  0  0  0  0  0
    4.9501    0.0000    0.0000 C   0  0  0  0  0  0  0  0  0  0  0  0
    2.1731    1.9520    0.0000 C   0  0  0  0  0  0  0  0  0  0  0  0
    3.6020    1.9520    0.0000 C   0  0  0  0  0  0  0  0  0  0  0  0
    1.6500    1.4290    0.0000 C   0  0  0  0  0  0  0  0  0  0  0  0
    1.6500    0.0000    0.0000 C   0  0  0  0  0  0  0  0  0  0  0  0
    4.9501    0.8250    0.0000 C   0  0  0  0  0  0  0  0  0  0  0  0
    4.9501   -0.8250    0.0000 C   0  0  0  0  0  0  0  0  0  0  0  0
    5.7751    0.0000    0.0000 C   0  0  0  0  0  0  0  0  0  0  0  0
    4.2356    1.2375    0.0000 C   0  0  0  0  0  0  0  0  0  0  0  0
    5.6646   -1.2375    0.0000 C   0  0  0  0  0  0  0  0  0  0  0  0
    5.6646    1.2375    0.0000 C   0  0  0  0  0  0  0  0  0  0  0  0
    4.2356   -1.2375    0.0000 C   0  0  0  0  0  0  0  0  0  0  0  0
    4.2356    2.0625    0.0000 C   0  0  0  0  0  0  0  0  0  0  0  0
    5.6646   -2.0625    0.0000 C   0  0  0  0  0  0  0  0  0  0  0  0
    5.6646    2.0625    0.0000 C   0  0  0  0  0  0  0  0  0  0  0  0
    4.2356   -2.0625    0.0000 C   0  0  0  0  0  0  0  0  0  0  0  0
    4.9501    2.4751    0.0000 C   0  0  0  0  0  0  0  0  0  0  0  0
    4.9501   -2.4751    0.0000 C   0  0  0  0  0  0  0  0  0  0  0  0
  1 16  2  0
  2  4  1  0
  2  5  1  0
  2  6  1  0
  2  8  1  0
  3 16  1  0
  4  7  1  0
  5 10  1  0
  5 11  1  0
  6 12  1  0
  6 13  1  0
  7  9  1  0
  9 14  1  0
  9 15  1  0
  9 16  1  0
 14 17  2  0
 14 19  1  0
 15 18  2  0
 15 20  1  0
 17 21  1  0
 18 22  1  0
 19 23  2  0
 20 24  2  0
 21 25  2  0
 22 26  2  0
 23 25  1  0
 24 26  1  0
M  CHG  1   2   1
M  END
$$$$
