1058
     RDKit          2D

 23 26  0  0  1  0  0  0  0  0999 V2000
    3.8014    1.4494    0.0000 O   0  0  0  0  0  0  0  0  0  0  0  0
    5.2682   -1.8991    0.0000 O   0  0  0  0  0  0  0  0  0  0  0  0
    5.9961   -0.6330    0.0000 N   0  0  0  0  0  0  0  0  0  0  0  0
    4.5111    0.2091    0.0000 N   0  0  0  0  0  0  0  0  0  0  0  0
    5.9961    0.1920    0.0000 C   0  0  0  0  0  0  0  0  0  0  0  0
    3.0821    0.2147    0.0000 C   0  0  0  0  0  0  0  0  0  0  0  0
    5.2586    0.6330    0.0000 C   0  0  0  0  0  0  0  0  0  0  0  0
    3.0789   -0.6103    0.0000 C   0  0  0  0  0  0  0  0  0  0  0  0
    2.3693    0.6299    0.0000 C   0  0  0  0  0  0  0  0  0  0  0  0
    3.7982    0.6244    0.0000 C   0  0  0  0  0  0  0  0  0  0  0  0
    2.3629   -1.0201    0.0000 C   0  0  0  0  0  0  0  0  0  0  0  0
    1.6532    0.2201    0.0000 C   0  0  0  0  0  0  0  0  0  0  0  0
    6.7106    0.6045    0.0000 C   0  0  0  0  0  0  0  0  0  0  0  0
    6.7106   -1.0455    0.0000 C   0  0  0  0  0  0  0  0  0  0  0  0
    4.5111   -0.6502    0.0000 C   0  0  0  0  0  0  0  0  0  0  0  0
    1.6500   -0.6049    0.0000 C   0  0  0  0  0  0  0  0  0  0  0  0
    7.4251   -0.6330    0.0000 C   0  0  0  0  0  0  0  0  0  0  0  0
    5.2586   -1.0742    0.0000 C   0  0  0  0  0  0  0  0  0  0  0  0
    7.4251    0.1920    0.0000 C   0  0  0  0  0  0  0  0  0  0  0  0
    6.6973    1.4637    0.0000 C   0  0  0  0  0  0  0  0  0  0  0  0
    8.1758    0.6101    0.0000 C   0  0  0  0  0  0  0  0  0  0  0  0
    7.4382    1.8991    0.0000 C   0  0  0  0  0  0  0  0  0  0  0  0
    8.1824    1.4694    0.0000 C   0  0  0  0  0  0  0  0  0  0  0  0
  1 10  2  0
  2 18  2  0
  3  5  1  0
  3 14  1  0
  3 18  1  0
  4  7  1  0
  4 10  1  0
  4 15  1  0
  5  7  1  0
  5 13  1  0
  6  8  1  0
  6  9  1  0
  6 10  1  0
  8 11  1  0
  9 12  1  0
 11 16  1  0
 12 16  1  0
 13 19  2  0
 13 20  1  0
 14 17  1  0
 15 18  1  0
 17 19  1  0
 19 21  1  0
 20 22  2  0
 21 23  2  0
 22 23  1  0
M  END
$$$$
