1087
     RDKit          2D

 19 20  0  0  1  0  0  0  0  0999 V2000
    2.8075    2.5246    0.0000 O   0  0  0  0  0  0  0  0  0  0  0  0
    4.2365    0.0495    0.0000 N   0  0  0  0  0  0  0  0  0  0  0  0
    2.0930   -2.8381    0.0000 N   0  0  0  0  0  0  0  0  0  0  0  0
    5.6885    0.8459    0.0000 N   0  0  0  0  0  0  0  0  0  0  0  0
    3.5220   -0.3630    0.0000 C   0  0  0  0  0  0  0  0  0  0  0  0
    3.5220   -1.1880    0.0000 C   0  0  0  0  0  0  0  0  0  0  0  0
    2.8075   -1.6005    0.0000 C   0  0  0  0  0  0  0  0  0  0  0  0
    2.8075    0.0495    0.0000 C   0  0  0  0  0  0  0  0  0  0  0  0
    4.2365    0.8745    0.0000 C   0  0  0  0  0  0  0  0  0  0  0  0
    2.8075   -2.4256    0.0000 C   0  0  0  0  0  0  0  0  0  0  0  0
    4.9509    1.2870    0.0000 C   0  0  0  0  0  0  0  0  0  0  0  0
    3.5220    1.2870    0.0000 C   0  0  0  0  0  0  0  0  0  0  0  0
    4.9509    2.1120    0.0000 C   0  0  0  0  0  0  0  0  0  0  0  0
    3.5220    2.1120    0.0000 C   0  0  0  0  0  0  0  0  0  0  0  0
    4.2365    2.5246    0.0000 C   0  0  0  0  0  0  0  0  0  0  0  0
    5.6885    2.5532    0.0000 C   0  0  0  0  0  0  0  0  0  0  0  0
    6.4360    2.1292    0.0000 C   0  0  0  0  0  0  0  0  0  0  0  0
    6.4360    1.2699    0.0000 C   0  0  0  0  0  0  0  0  0  0  0  0
    2.8075    3.3496    0.0000 C   0  0  0  0  0  0  0  0  0  0  0  0
  1 14  1  0
  1 19  1  0
  2  5  1  0
  2  9  1  0
  3 10  1  0
  4 11  2  0
  4 18  1  0
  5  6  1  0
  5  8  1  0
  6  7  1  0
  7 10  1  0
  9 11  1  0
  9 12  2  0
 11 13  1  0
 12 14  1  0
 13 15  1  0
 13 16  2  0
 14 15  2  0
 16 17  1  0
 17 18  2  0
M  END
$$$$
