1171
     RDKit          2D

 18 19  0  0  0  0  0  0  0  0999 V2000
    2.3645   -3.7126    0.0000 Cl  0  0  0  0  0  0  0  0  0  0  0  0
    3.7935    3.7126    0.0000 O   0  0  0  0  0  0  0  0  0  0  0  0
    1.6500    0.0000    0.0000 O   0  0  0  0  0  0  0  0  0  0  0  0
    3.7935    2.0625    0.0000 N   0  0  0  0  0  0  0  0  0  0  0  0
    3.0791    0.0000    0.0000 N   0  0  0  0  0  0  0  0  0  0  0  0
    4.5080    2.4751    0.0000 C   0  0  0  0  0  0  0  0  0  0  0  0
    3.0791    2.4751    0.0000 C   0  0  0  0  0  0  0  0  0  0  0  0
    3.7935    1.2375    0.0000 C   0  0  0  0  0  0  0  0  0  0  0  0
    4.5080    3.3001    0.0000 C   0  0  0  0  0  0  0  0  0  0  0  0
    3.0791    3.3001    0.0000 C   0  0  0  0  0  0  0  0  0  0  0  0
    3.0791    0.8250    0.0000 C   0  0  0  0  0  0  0  0  0  0  0  0
    2.3645   -0.4125    0.0000 C   0  0  0  0  0  0  0  0  0  0  0  0
    2.3645   -1.2375    0.0000 C   0  0  0  0  0  0  0  0  0  0  0  0
    3.0791   -1.6500    0.0000 C   0  0  0  0  0  0  0  0  0  0  0  0
    1.6500   -1.6500    0.0000 C   0  0  0  0  0  0  0  0  0  0  0  0
    3.0791   -2.4751    0.0000 C   0  0  0  0  0  0  0  0  0  0  0  0
    1.6500   -2.4751    0.0000 C   0  0  0  0  0  0  0  0  0  0  0  0
    2.3645   -2.8876    0.0000 C   0  0  0  0  0  0  0  0  0  0  0  0
  1 18  1  0
  2  9  1  0
  2 10  1  0
  3 12  2  0
  4  6  1  0
  4  7  1  0
  4  8  1  0
  5 11  1  0
  5 12  1  0
  6  9  1  0
  7 10  1  0
  8 11  1  0
 12 13  1  0
 13 14  2  0
 13 15  1  0
 14 16  1  0
 15 17  2  0
 16 18  2  0
 17 18  1  0
M  END
$$$$
