1012
     RDKit          2D

 26 28  0  0  1  0  0  0  0  0999 V2000
    3.3001   -3.3143    0.0000 F   0  0  0  0  0  0  0  0  0  0  0  0
    1.6500   -3.3143    0.0000 F   0  0  0  0  0  0  0  0  0  0  0  0
    2.4751   -4.1394    0.0000 F   0  0  0  0  0  0  0  0  0  0  0  0
    4.6185    1.2233    0.0000 N   0  0  0  0  0  0  0  0  0  0  0  0
    5.3330    1.6358    0.0000 C   0  0  0  0  0  0  0  0  0  0  0  0
    4.6185    0.3982    0.0000 C   0  0  0  0  0  0  0  0  0  0  0  0
    5.3330    2.4608    0.0000 C   0  0  0  0  0  0  0  0  0  0  0  0
    3.9041   -0.0143    0.0000 C   0  0  0  0  0  0  0  0  0  0  0  0
    3.9041   -0.8393    0.0000 C   0  0  0  0  0  0  0  0  0  0  0  0
    6.0475    2.8733    0.0000 C   0  0  0  0  0  0  0  0  0  0  0  0
    6.0475    1.2233    0.0000 C   0  0  0  0  0  0  0  0  0  0  0  0
    6.0475    3.6983    0.0000 C   0  0  0  0  0  0  0  0  0  0  0  0
    3.1895   -1.2518    0.0000 C   0  0  0  0  0  0  0  0  0  0  0  0
    4.6185    2.8733    0.0000 C   0  0  0  0  0  0  0  0  0  0  0  0
    6.7850    2.4322    0.0000 C   0  0  0  0  0  0  0  0  0  0  0  0
    5.3330    4.1108    0.0000 C   0  0  0  0  0  0  0  0  0  0  0  0
    4.6185    3.6983    0.0000 C   0  0  0  0  0  0  0  0  0  0  0  0
    3.1895   -2.0768    0.0000 C   0  0  0  0  0  0  0  0  0  0  0  0
    6.7850    4.1394    0.0000 C   0  0  0  0  0  0  0  0  0  0  0  0
    2.4751   -0.8393    0.0000 C   0  0  0  0  0  0  0  0  0  0  0  0
    2.4751   -2.4893    0.0000 C   0  0  0  0  0  0  0  0  0  0  0  0
    7.5325    2.8561    0.0000 C   0  0  0  0  0  0  0  0  0  0  0  0
    7.5325    3.7155    0.0000 C   0  0  0  0  0  0  0  0  0  0  0  0
    1.7606   -1.2518    0.0000 C   0  0  0  0  0  0  0  0  0  0  0  0
    1.7606   -2.0768    0.0000 C   0  0  0  0  0  0  0  0  0  0  0  0
    2.4751   -3.3143    0.0000 C   0  0  0  0  0  0  0  0  0  0  0  0
  1 26  1  0
  2 26  1  0
  3 26  1  0
  5  4  1  0
  4  6  1  0
  5  7  1  0
  5 11  1  1
  6  8  1  0
  7 10  1  0
  7 14  2  0
  8  9  1  0
  9 13  1  0
 10 12  2  0
 10 15  1  0
 12 16  1  0
 12 19  1  0
 13 18  2  0
 13 20  1  0
 14 17  1  0
 15 22  2  0
 16 17  2  0
 18 21  1  0
 19 23  2  0
 20 24  2  0
 21 25  2  0
 21 26  1  0
 22 23  1  0
 24 25  1  0
M  END
$$$$
