
     RDKit          2D

 21 23  0  0  0  0  0  0  0  0999 V2000
    0.0000    0.0000    0.0000 C   0  0  0  0  0  0  0  0  0  0  0  0
   -0.7433    0.3580    0.0000 C   0  0  0  0  0  0  0  0  0  0  0  0
    0.7433    0.3580    0.0000 C   0  0  0  0  0  0  0  0  0  0  0  0
   -0.9268    1.1623    0.0000 C   0  0  0  0  0  0  0  0  0  0  0  0
   -1.3480   -0.2032    0.0000 C   0  0  0  0  0  0  0  0  0  0  0  0
    0.9269    1.1623    0.0000 C   0  0  0  0  0  0  0  0  0  0  0  0
    1.3481   -0.2032    0.0000 C   0  0  0  0  0  0  0  0  0  0  0  0
    0.7145   -1.2375    0.0000 C   0  0  0  0  0  0  0  0  0  0  0  0
   -0.4125    1.8073    0.0000 C   0  0  0  0  0  0  0  0  0  0  0  0
   -1.7152    1.4055    0.0000 C   0  0  0  0  0  0  0  0  0  0  0  0
   -2.1364    0.0400    0.0000 C   0  0  0  0  0  0  0  0  0  0  0  0
    0.4125    1.8073    0.0000 O   0  0  0  0  0  0  0  0  0  0  0  0
    1.7153    1.4055    0.0000 C   0  0  0  0  0  0  0  0  0  0  0  0
    2.1364    0.0400    0.0000 C   0  0  0  0  0  0  0  0  0  0  0  0
    0.7145   -2.0625    0.0000 C   0  0  0  0  0  0  0  0  0  0  0  0
   -2.3200    0.8443    0.0000 C   0  0  0  0  0  0  0  0  0  0  0  0
    2.3200    0.8443    0.0000 C   0  0  0  0  0  0  0  0  0  0  0  0
    1.4290   -2.4750    0.0000 N   0  0  0  0  0  0  0  0  0  0  0  0
    2.1434   -2.0625    0.0000 C   0  0  0  0  0  0  0  0  0  0  0  0
    1.4290   -3.3000    0.0000 C   0  0  0  0  0  0  0  0  0  0  0  0
    0.0000   -0.8250    0.0000 C   0  0  0  0  0  0  0  0  0  0  0  0
  1  2  1  0
  1  3  1  0
  1 21  2  3
  2  4  2  0
  2  5  1  0
  3  6  2  0
  3  7  1  0
 21  8  1  0
  4  9  1  0
  4 10  1  0
  5 11  2  0
  6 12  1  0
  6 13  1  0
  7 14  2  0
  8 15  1  0
 10 16  2  0
 13 17  2  0
 15 18  1  0
 18 19  1  0
 18 20  1  0
  9 12  1  0
 11 16  1  0
 14 17  1  0
M  END
$$$$
