1161
     RDKit          2D

 18 18  0  0  0  0  0  0  0  0999 V2000
    1.6500   -0.9034    0.0000 Cl  0  0  0  0  0  0  0  0  0  0  0  0
    3.7935    0.3341    0.0000 O   0  0  0  0  0  0  0  0  0  0  0  0
    2.3645    0.3341    0.0000 O   0  0  0  0  0  0  0  0  0  0  0  0
    4.5080    2.3967    0.0000 N   0  0  0  0  0  0  0  0  0  0  0  0
    3.0791   -3.3784    0.0000 N   0  0  0  0  0  0  0  0  0  0  0  0
    4.5080    1.5717    0.0000 C   0  0  0  0  0  0  0  0  0  0  0  0
    5.2224    2.8092    0.0000 C   0  0  0  0  0  0  0  0  0  0  0  0
    3.7935    2.8092    0.0000 C   0  0  0  0  0  0  0  0  0  0  0  0
    3.7935    1.1592    0.0000 C   0  0  0  0  0  0  0  0  0  0  0  0
    5.2224    3.6342    0.0000 C   0  0  0  0  0  0  0  0  0  0  0  0
    3.7935    3.6342    0.0000 C   0  0  0  0  0  0  0  0  0  0  0  0
    3.0791   -0.0784    0.0000 C   0  0  0  0  0  0  0  0  0  0  0  0
    3.0791   -0.9034    0.0000 C   0  0  0  0  0  0  0  0  0  0  0  0
    2.3645   -1.3159    0.0000 C   0  0  0  0  0  0  0  0  0  0  0  0
    3.7935   -1.3159    0.0000 C   0  0  0  0  0  0  0  0  0  0  0  0
    3.0791   -2.5534    0.0000 C   0  0  0  0  0  0  0  0  0  0  0  0
    2.3645   -2.1409    0.0000 C   0  0  0  0  0  0  0  0  0  0  0  0
    3.7935   -2.1409    0.0000 C   0  0  0  0  0  0  0  0  0  0  0  0
  1 14  1  0
  2  9  1  0
  2 12  1  0
  3 12  2  0
  4  6  1  0
  4  7  1  0
  4  8  1  0
  5 16  1  0
  6  9  1  0
  7 10  1  0
  8 11  1  0
 12 13  1  0
 13 14  2  0
 13 15  1  0
 14 17  1  0
 15 18  2  0
 16 17  2  0
 16 18  1  0
M  END
$$$$
