
     RDKit          2D

 20 22  0  0  0  0  0  0  0  0999 V2000
    0.6203   -1.4601    0.0000 C   0  0  0  0  0  0  0  0  0  0  0  0
    1.4399   -1.3756    0.0000 N   0  0  0  0  0  0  0  0  0  0  0  0
    1.6117   -0.5680    0.0000 C   0  0  0  0  0  0  0  0  0  0  0  0
    0.8982   -0.1568    0.0000 C   0  0  0  0  0  0  0  0  0  0  0  0
    0.2838   -0.7082    0.0000 N   0  0  0  0  0  0  0  0  0  0  0  0
   -0.5238   -0.5363    0.0000 C   0  0  0  0  0  0  0  0  0  0  0  0
   -1.1382   -1.0876    0.0000 C   0  0  0  0  0  0  0  0  0  0  0  0
   -1.8517   -0.6765    0.0000 C   0  0  0  0  0  0  0  0  0  0  0  0
   -1.6799    0.1310    0.0000 C   0  0  0  0  0  0  0  0  0  0  0  0
   -0.8602    0.2198    0.0000 O   0  0  0  0  0  0  0  0  0  0  0  0
   -2.2311    0.7455    0.0000 C   0  0  0  0  0  0  0  0  0  0  0  0
   -3.0388    0.5736    0.0000 O   0  0  0  0  0  0  0  0  0  0  0  0
   -2.6037   -1.0130    0.0000 O   0  0  0  0  0  0  0  0  0  0  0  0
   -1.0495   -1.9072    0.0000 O   0  0  0  0  0  0  0  0  0  0  0  0
    0.8982    0.6695    0.0000 N   0  0  0  0  0  0  0  0  0  0  0  0
    1.6117    1.0806    0.0000 C   0  0  0  0  0  0  0  0  0  0  0  0
    2.3252    0.6695    0.0000 N   0  0  0  0  0  0  0  0  0  0  0  0
    2.3252   -0.1568    0.0000 C   0  0  0  0  0  0  0  0  0  0  0  0
    3.0388   -0.5680    0.0000 N   0  0  0  0  0  0  0  0  0  0  0  0
    1.6117    1.9072    0.0000 F   0  0  0  0  0  0  0  0  0  0  0  0
  1  2  2  0
  2  3  1  0
  3  4  2  0
  4  5  1  0
  1  5  1  0
  6  5  1  1
  6  7  1  0
  7  8  1  0
  8  9  1  0
  9 10  1  0
  6 10  1  0
  9 11  1  1
 11 12  1  0
  8 13  1  6
  7 14  1  1
  4 15  1  0
 15 16  2  0
 16 17  1  0
 17 18  2  0
  3 18  1  0
 18 19  1  0
 16 20  1  0
M  END
$$$$
