1204
     RDKit          2D

 32 34  0  0  0  0  0  0  0  0999 V2000
    3.8495   -1.6500    0.0000 O   0  0  0  0  0  0  0  0  0  0  0  0
    3.8495    1.6500    0.0000 O   0  0  0  0  0  0  0  0  0  0  0  0
    2.4070   -1.6785    0.0000 O   0  0  0  0  0  0  0  0  0  0  0  0
    2.4070    1.6785    0.0000 O   0  0  0  0  0  0  0  0  0  0  0  0
    7.3922   -5.4155    0.0000 O   0  0  0  0  0  0  0  0  0  0  0  0
    7.3922    5.4155    0.0000 O   0  0  0  0  0  0  0  0  0  0  0  0
    5.2919   -1.6785    0.0000 N   0  0  0  0  0  0  0  0  0  0  0  0
    5.2919    1.6785    0.0000 N   0  0  0  0  0  0  0  0  0  0  0  0
    6.7016   -3.3450    0.0000 N   0  0  0  0  0  0  0  0  0  0  0  0
    6.7016    3.3450    0.0000 N   0  0  0  0  0  0  0  0  0  0  0  0
    4.5640   -0.4125    0.0000 C   0  0  0  0  0  0  0  0  0  0  0  0
    4.5640    0.4125    0.0000 C   0  0  0  0  0  0  0  0  0  0  0  0
    5.3015   -0.8536    0.0000 C   0  0  0  0  0  0  0  0  0  0  0  0
    5.3015    0.8536    0.0000 C   0  0  0  0  0  0  0  0  0  0  0  0
    3.1350   -0.4125    0.0000 C   0  0  0  0  0  0  0  0  0  0  0  0
    3.1350    0.4125    0.0000 C   0  0  0  0  0  0  0  0  0  0  0  0
    3.8495   -0.8250    0.0000 C   0  0  0  0  0  0  0  0  0  0  0  0
    3.8495    0.8250    0.0000 C   0  0  0  0  0  0  0  0  0  0  0  0
    6.0490   -0.4297    0.0000 C   0  0  0  0  0  0  0  0  0  0  0  0
    6.0490    0.4297    0.0000 C   0  0  0  0  0  0  0  0  0  0  0  0
    6.0015   -2.0993    0.0000 C   0  0  0  0  0  0  0  0  0  0  0  0
    6.0015    2.0993    0.0000 C   0  0  0  0  0  0  0  0  0  0  0  0
    2.3975   -0.8536    0.0000 C   0  0  0  0  0  0  0  0  0  0  0  0
    2.3975    0.8536    0.0000 C   0  0  0  0  0  0  0  0  0  0  0  0
    5.9921   -2.9242    0.0000 C   0  0  0  0  0  0  0  0  0  0  0  0
    5.9921    2.9242    0.0000 C   0  0  0  0  0  0  0  0  0  0  0  0
    1.6500   -0.4297    0.0000 C   0  0  0  0  0  0  0  0  0  0  0  0
    1.6500    0.4297    0.0000 C   0  0  0  0  0  0  0  0  0  0  0  0
    6.6922   -4.1699    0.0000 C   0  0  0  0  0  0  0  0  0  0  0  0
    6.6922    4.1699    0.0000 C   0  0  0  0  0  0  0  0  0  0  0  0
    7.4018   -4.5906    0.0000 C   0  0  0  0  0  0  0  0  0  0  0  0
    7.4018    4.5906    0.0000 C   0  0  0  0  0  0  0  0  0  0  0  0
  1 17  2  0
  2 18  2  0
  3 23  1  0
  4 24  1  0
  5 31  1  0
  6 32  1  0
  7 13  1  0
  7 21  1  0
  8 14  1  0
  8 22  1  0
  9 25  1  0
  9 29  1  0
 10 26  1  0
 10 30  1  0
 11 12  1  0
 11 13  2  0
 11 17  1  0
 12 14  2  0
 12 18  1  0
 13 19  1  0
 14 20  1  0
 15 16  2  0
 15 17  1  0
 15 23  1  0
 16 18  1  0
 16 24  1  0
 19 20  2  0
 21 25  1  0
 22 26  1  0
 23 27  2  0
 24 28  2  0
 27 28  1  0
 29 31  1  0
 30 32  1  0
M  END
$$$$
