1129
     RDKit          2D

 25 27  0  0  1  0  0  0  0  0999 V2000
    5.1662    1.2111    0.0000 S   0  0  0  0  0  0  0  0  0  0  0  0
    8.0537   -0.9323    0.0000 O   0  0  0  0  0  0  0  0  0  0  0  0
   10.5288   -2.3613    0.0000 O   0  0  0  0  0  0  0  0  0  0  0  0
    5.5787    1.9257    0.0000 O   0  0  0  0  0  0  0  0  0  0  0  0
    3.8597    1.8751    0.0000 N   0  0  0  0  0  0  0  0  0  0  0  0
    3.8597    0.5472    0.0000 N   0  0  0  0  0  0  0  0  0  0  0  0
    6.8162    1.2111    0.0000 N   0  0  0  0  0  0  0  0  0  0  0  0
    5.5787    0.4967    0.0000 C   0  0  0  0  0  0  0  0  0  0  0  0
    6.4037    0.4967    0.0000 C   0  0  0  0  0  0  0  0  0  0  0  0
    6.8162   -0.2178    0.0000 C   0  0  0  0  0  0  0  0  0  0  0  0
    7.6412   -0.2178    0.0000 C   0  0  0  0  0  0  0  0  0  0  0  0
    4.3412    1.2111    0.0000 C   0  0  0  0  0  0  0  0  0  0  0  0
    3.0791    1.6236    0.0000 C   0  0  0  0  0  0  0  0  0  0  0  0
    8.8788   -0.9323    0.0000 C   0  0  0  0  0  0  0  0  0  0  0  0
    9.2913   -1.6468    0.0000 C   0  0  0  0  0  0  0  0  0  0  0  0
    3.0791    0.7986    0.0000 C   0  0  0  0  0  0  0  0  0  0  0  0
    6.4037   -0.9323    0.0000 C   0  0  0  0  0  0  0  0  0  0  0  0
    8.0537    0.4967    0.0000 C   0  0  0  0  0  0  0  0  0  0  0  0
   10.1163   -1.6468    0.0000 C   0  0  0  0  0  0  0  0  0  0  0  0
    2.3645    2.0361    0.0000 C   0  0  0  0  0  0  0  0  0  0  0  0
    7.6412    1.2111    0.0000 C   0  0  0  0  0  0  0  0  0  0  0  0
    2.3645    0.3861    0.0000 C   0  0  0  0  0  0  0  0  0  0  0  0
    1.6500    1.6236    0.0000 C   0  0  0  0  0  0  0  0  0  0  0  0
    1.6500    0.7986    0.0000 C   0  0  0  0  0  0  0  0  0  0  0  0
   11.3538   -2.3613    0.0000 C   0  0  0  0  0  0  0  0  0  0  0  0
  1  4  2  0
  1  8  1  0
  1 12  1  0
  2 11  1  0
  2 14  1  0
  3 19  1  0
  3 25  1  0
  5 12  1  0
  5 13  1  0
  6 12  2  0
  6 16  1  0
  7  9  2  0
  7 21  1  0
  8  9  1  0
  9 10  1  0
 10 11  2  0
 10 17  1  0
 11 18  1  0
 13 16  2  0
 13 20  1  0
 14 15  1  0
 15 19  1  0
 16 22  1  0
 18 21  2  0
 20 23  2  0
 22 24  2  0
 23 24  1  0
M  END
$$$$
