
     RDKit          2D

 13 14  0  0  0  0  0  0  0  0999 V2000
    6.5489    3.8116    0.0000 O   0  0  0  0  0  0  0  0  0  0  0  0
    5.1199    1.3365    0.0000 O   0  0  0  0  0  0  0  0  0  0  0  0
    6.5489    1.3365    0.0000 N   0  0  0  0  0  0  0  0  0  0  0  0
    5.8344    2.5741    0.0000 N   0  0  0  0  0  0  0  0  0  0  0  0
    8.0440    2.8254    0.0000 N   0  0  0  0  0  0  0  0  0  0  0  0
    8.0440    1.4977    0.0000 N   0  0  0  0  0  0  0  0  0  0  0  0
    7.2634    1.7490    0.0000 C   0  0  0  0  0  0  0  0  0  0  0  0
    7.2634    2.5741    0.0000 C   0  0  0  0  0  0  0  0  0  0  0  0
    6.5489    2.9866    0.0000 C   0  0  0  0  0  0  0  0  0  0  0  0
    5.8344    1.7490    0.0000 C   0  0  0  0  0  0  0  0  0  0  0  0
    6.5489    0.5115    0.0000 C   0  0  0  0  0  0  0  0  0  0  0  0
    5.1199    2.9866    0.0000 C   0  0  0  0  0  0  0  0  0  0  0  0
    8.5255    2.1615    0.0000 C   0  0  0  0  0  0  0  0  0  0  0  0
  1  9  2  0
  2 10  2  0
  3  7  1  0
  3 10  1  0
  3 11  1  0
  4  9  1  0
  4 10  1  0
  4 12  1  0
  5  8  1  0
  5 13  1  0
  6  7  1  0
  6 13  2  0
  7  8  2  0
  8  9  1  0
M  END
$$$$
