1095
     RDKit          2D

 30 32  0  0  1  0  0  0  0  0999 V2000
    4.8848    3.3294    0.0000 F   0  0  0  0  0  0  0  0  0  0  0  0
    6.8162   -0.4714    0.0000 O   0  0  0  0  0  0  0  0  0  0  0  0
    8.0537   -1.1859    0.0000 O   0  0  0  0  0  0  0  0  0  0  0  0
    9.2913   -3.3294    0.0000 O   0  0  0  0  0  0  0  0  0  0  0  0
    9.2913   -1.9003    0.0000 O   0  0  0  0  0  0  0  0  0  0  0  0
    3.8597   -1.1353    0.0000 N   0  0  0  0  0  0  0  0  0  0  0  0
    4.1159   -1.9195    0.0000 C   0  0  0  0  0  0  0  0  0  0  0  0
    4.3412   -0.4714    0.0000 C   0  0  0  0  0  0  0  0  0  0  0  0
    3.0791   -0.8839    0.0000 C   0  0  0  0  0  0  0  0  0  0  0  0
    3.8597    0.1926    0.0000 C   0  0  0  0  0  0  0  0  0  0  0  0
    3.0791   -0.0589    0.0000 C   0  0  0  0  0  0  0  0  0  0  0  0
    5.1662   -0.4714    0.0000 C   0  0  0  0  0  0  0  0  0  0  0  0
    3.5650   -2.5335    0.0000 C   0  0  0  0  0  0  0  0  0  0  0  0
    4.9232   -2.0896    0.0000 C   0  0  0  0  0  0  0  0  0  0  0  0
    4.1159    0.9767    0.0000 C   0  0  0  0  0  0  0  0  0  0  0  0
    2.3645   -1.2964    0.0000 C   0  0  0  0  0  0  0  0  0  0  0  0
    2.3645    0.3536    0.0000 C   0  0  0  0  0  0  0  0  0  0  0  0
    6.4037   -1.1859    0.0000 C   0  0  0  0  0  0  0  0  0  0  0  0
    6.8162   -1.9003    0.0000 C   0  0  0  0  0  0  0  0  0  0  0  0
    5.5787   -1.1859    0.0000 C   0  0  0  0  0  0  0  0  0  0  0  0
    7.6412   -1.9003    0.0000 C   0  0  0  0  0  0  0  0  0  0  0  0
    1.6500   -0.8839    0.0000 C   0  0  0  0  0  0  0  0  0  0  0  0
    1.6500   -0.0589    0.0000 C   0  0  0  0  0  0  0  0  0  0  0  0
    3.5650    1.5908    0.0000 C   0  0  0  0  0  0  0  0  0  0  0  0
    4.9232    1.1469    0.0000 C   0  0  0  0  0  0  0  0  0  0  0  0
    8.0537   -2.6148    0.0000 C   0  0  0  0  0  0  0  0  0  0  0  0
    3.8213    2.3750    0.0000 C   0  0  0  0  0  0  0  0  0  0  0  0
    5.1795    1.9310    0.0000 C   0  0  0  0  0  0  0  0  0  0  0  0
    4.6286    2.5451    0.0000 C   0  0  0  0  0  0  0  0  0  0  0  0
    8.8788   -2.6148    0.0000 C   0  0  0  0  0  0  0  0  0  0  0  0
  1 29  1  0
 18  2  1  6
 21  3  1  6
  4 30  1  0
  5 30  2  0
  6  7  1  0
  6  8  1  0
  6  9  1  0
  7 13  1  0
  7 14  1  0
  8 10  2  0
  8 12  1  0
  9 11  2  0
  9 16  1  0
 10 11  1  0
 10 15  1  0
 11 17  1  0
 12 20  2  0
 15 24  2  0
 15 25  1  0
 16 22  2  0
 17 23  2  0
 18 19  1  0
 18 20  1  0
 19 21  1  0
 21 26  1  0
 22 23  1  0
 24 27  1  0
 25 28  2  0
 26 30  1  0
 27 29  2  0
 28 29  1  0
M  END
$$$$
