1044
     RDKit          2D

 27 30  0  0  1  0  0  0  0  0999 V2000
    3.7935    1.1846    0.0000 F   0  0  0  0  0  0  0  0  0  0  0  0
    5.2224   -1.2904    0.0000 O   0  0  0  0  0  0  0  0  0  0  0  0
    6.6649    2.0382    0.0000 O   0  0  0  0  0  0  0  0  0  0  0  0
    8.8510    0.7948    0.0000 O   0  0  0  0  0  0  0  0  0  0  0  0
    8.1317    2.0295    0.0000 O   0  0  0  0  0  0  0  0  0  0  0  0
    6.6745   -0.4940    0.0000 N   0  0  0  0  0  0  0  0  0  0  0  0
    3.7935   -0.4654    0.0000 N   0  0  0  0  0  0  0  0  0  0  0  0
    2.3645   -1.2904    0.0000 N   0  0  0  0  0  0  0  0  0  0  0  0
    6.6649   -1.3190    0.0000 C   0  0  0  0  0  0  0  0  0  0  0  0
    7.0692   -2.0382    0.0000 C   0  0  0  0  0  0  0  0  0  0  0  0
    6.2442   -2.0286    0.0000 C   0  0  0  0  0  0  0  0  0  0  0  0
    5.9370   -0.0529    0.0000 C   0  0  0  0  0  0  0  0  0  0  0  0
    7.4220   -0.0700    0.0000 C   0  0  0  0  0  0  0  0  0  0  0  0
    5.2224   -0.4654    0.0000 C   0  0  0  0  0  0  0  0  0  0  0  0
    5.9370    0.7721    0.0000 C   0  0  0  0  0  0  0  0  0  0  0  0
    4.5080   -0.0529    0.0000 C   0  0  0  0  0  0  0  0  0  0  0  0
    3.0791   -0.0529    0.0000 C   0  0  0  0  0  0  0  0  0  0  0  0
    2.3645   -0.4654    0.0000 C   0  0  0  0  0  0  0  0  0  0  0  0
    3.7935   -1.2904    0.0000 C   0  0  0  0  0  0  0  0  0  0  0  0
    3.0791   -1.7029    0.0000 C   0  0  0  0  0  0  0  0  0  0  0  0
    7.4220    0.7893    0.0000 C   0  0  0  0  0  0  0  0  0  0  0  0
    6.6745    1.2132    0.0000 C   0  0  0  0  0  0  0  0  0  0  0  0
    5.2224    1.1846    0.0000 C   0  0  0  0  0  0  0  0  0  0  0  0
    4.5080    0.7721    0.0000 C   0  0  0  0  0  0  0  0  0  0  0  0
    1.6500   -0.0529    0.0000 C   0  0  0  0  0  0  0  0  0  0  0  0
    8.1349    1.2045    0.0000 C   0  0  0  0  0  0  0  0  0  0  0  0
    4.5080   -1.7029    0.0000 C   0  0  0  0  0  0  0  0  0  0  0  0
  1 24  1  0
  2 14  1  0
  2 27  1  0
  3 22  2  0
  4 26  1  0
  5 26  2  0
  6  9  1  0
  6 12  1  0
  6 13  1  0
  7 16  1  0
  7 17  1  0
  7 19  1  0
  8 18  1  0
  8 20  1  0
  9 10  1  0
  9 11  1  0
 10 11  1  0
 12 14  2  0
 12 15  1  0
 13 21  2  0
 14 16  1  0
 15 22  1  0
 15 23  2  0
 16 24  2  0
 17 18  1  0
 18 25  1  0
 19 20  1  0
 21 22  1  0
 21 26  1  0
 23 24  1  0
M  END
$$$$
