1587
     RDKit          2D

 26 29  0  0  1  0  0  0  0  0999 V2000
    1.6499   -0.7440    0.0000 Cl  0  0  0  0  0  0  0  0  0  0  0  0
    4.3623   -1.0472    0.0000 O   0  0  0  0  0  0  0  0  0  0  0  0
    6.6394    0.0601    0.0000 O   0  0  0  0  0  0  0  0  0  0  0  0
    5.2101    2.3592    0.0000 O   0  0  0  0  0  0  0  0  0  0  0  0
    5.1830    0.1666    0.0000 N   0  0  0  0  0  0  0  0  0  0  0  0
    4.0272    1.6159    0.0000 N   0  0  0  0  0  0  0  0  0  0  0  0
    4.4397   -0.1914    0.0000 C   0  0  0  0  0  0  0  0  0  0  0  0
    3.6964    0.1666    0.0000 C   0  0  0  0  0  0  0  0  0  0  0  0
    3.9750   -0.8730    0.0000 C   0  0  0  0  0  0  0  0  0  0  0  0
    5.3665    0.9709    0.0000 C   0  0  0  0  0  0  0  0  0  0  0  0
    3.5129    0.9709    0.0000 C   0  0  0  0  0  0  0  0  0  0  0  0
    5.9004   -0.3065    0.0000 C   0  0  0  0  0  0  0  0  0  0  0  0
    4.8521    1.6159    0.0000 C   0  0  0  0  0  0  0  0  0  0  0  0
    3.0756   -0.4276    0.0000 C   0  0  0  0  0  0  0  0  0  0  0  0
    5.0685   -1.5367    0.0000 C   0  0  0  0  0  0  0  0  0  0  0  0
    5.8428   -1.1639    0.0000 C   0  0  0  0  0  0  0  0  0  0  0  0
    2.6957    1.2368    0.0000 C   0  0  0  0  0  0  0  0  0  0  0  0
    4.3329   -1.6163    0.0000 C   0  0  0  0  0  0  0  0  0  0  0  0
    3.1523   -0.8114    0.0000 C   0  0  0  0  0  0  0  0  0  0  0  0
    3.6693    2.3592    0.0000 C   0  0  0  0  0  0  0  0  0  0  0  0
    2.2525   -0.1806    0.0000 C   0  0  0  0  0  0  0  0  0  0  0  0
    2.0613    0.6572    0.0000 C   0  0  0  0  0  0  0  0  0  0  0  0
    5.0037   -2.3592    0.0000 C   0  0  0  0  0  0  0  0  0  0  0  0
    3.8682   -2.2979    0.0000 C   0  0  0  0  0  0  0  0  0  0  0  0
    2.6875   -1.4929    0.0000 C   0  0  0  0  0  0  0  0  0  0  0  0
    3.0455   -2.2362    0.0000 C   0  0  0  0  0  0  0  0  0  0  0  0
  1 21  1  0
  2  7  1  0
  2 15  1  0
  3 12  2  0
  4 13  2  0
  5  7  1  0
  5 10  1  0
  5 12  1  0
  6 11  1  0
  6 13  1  0
  6 20  1  0
  7  8  1  0
  7  9  1  0
  8 11  2  0
  8 14  1  0
  9 18  2  0
  9 19  1  0
 10 13  1  0
 11 17  1  0
 12 16  1  0
 14 21  2  0
 15 16  2  0
 15 23  1  0
 17 22  2  0
 18 24  1  0
 19 25  2  0
 21 22  1  0
 24 26  2  0
 25 26  1  0
M  END
$$$$
