1424
     RDKit          2D

 17 18  0  0  1  0  0  0  0  0999 V2000
    4.5542    0.1222    0.0000 O   0  0  0  0  0  0  0  0  0  0  0  0
    2.4347    0.3771    0.0000 N   0  0  0  0  0  0  0  0  0  0  0  0
    3.1021   -0.1078    0.0000 N   0  0  0  0  0  0  0  0  0  0  0  0
    3.9996    1.8292    0.0000 N   0  0  0  0  0  0  0  0  0  0  0  0
    2.6896    1.1617    0.0000 C   0  0  0  0  0  0  0  0  0  0  0  0
    3.5146    1.1617    0.0000 C   0  0  0  0  0  0  0  0  0  0  0  0
    3.7696    0.3771    0.0000 C   0  0  0  0  0  0  0  0  0  0  0  0
    3.1021   -0.9328    0.0000 C   0  0  0  0  0  0  0  0  0  0  0  0
    2.2047    1.8292    0.0000 C   0  0  0  0  0  0  0  0  0  0  0  0
    1.6500    0.1222    0.0000 C   0  0  0  0  0  0  0  0  0  0  0  0
    3.6640    2.5829    0.0000 C   0  0  0  0  0  0  0  0  0  0  0  0
    4.8201    1.7429    0.0000 C   0  0  0  0  0  0  0  0  0  0  0  0
    3.8166   -1.3454    0.0000 C   0  0  0  0  0  0  0  0  0  0  0  0
    2.3876   -1.3454    0.0000 C   0  0  0  0  0  0  0  0  0  0  0  0
    3.8166   -2.1704    0.0000 C   0  0  0  0  0  0  0  0  0  0  0  0
    2.3876   -2.1704    0.0000 C   0  0  0  0  0  0  0  0  0  0  0  0
    3.1021   -2.5829    0.0000 C   0  0  0  0  0  0  0  0  0  0  0  0
  1  7  2  0
  2  3  1  0
  2  5  1  0
  2 10  1  0
  3  7  1  0
  3  8  1  0
  4  6  1  0
  4 11  1  0
  4 12  1  0
  5  6  2  0
  5  9  1  0
  6  7  1  0
  8 13  2  0
  8 14  1  0
 13 15  1  0
 14 16  2  0
 15 17  2  0
 16 17  1  0
M  END
$$$$
