 
     RDKit          2D

 28 31  0  0  0  0  0  0  0  0999 V2000
    5.2800   -8.2087    0.0000 N   0  0  0  0  0  0  0  0  0  0  0  0
    5.2800   -9.0337    0.0000 C   0  0  0  0  0  0  0  0  0  0  0  0
    6.0646   -9.2887    0.0000 N   0  0  0  0  0  0  0  0  0  0  0  0
    6.5496   -8.6212    0.0000 N   0  0  0  0  0  0  0  0  0  0  0  0
    6.0646   -7.9538    0.0000 C   0  0  0  0  0  0  0  0  0  0  0  0
    7.3746   -8.6212    0.0000 C   0  0  0  0  0  0  0  0  0  0  0  0
    7.7893   -9.3397    0.0000 C   0  0  0  0  0  0  0  0  0  0  0  0
    8.6143   -9.3397    0.0000 C   0  0  0  0  0  0  0  0  0  0  0  0
    9.0269   -8.6253    0.0000 C   0  0  0  0  0  0  0  0  0  0  0  0
    8.6121   -7.9069    0.0000 C   0  0  0  0  0  0  0  0  0  0  0  0
    7.7871   -7.9068    0.0000 C   0  0  0  0  0  0  0  0  0  0  0  0
    9.8587   -8.6254    0.0000 C   0  0  0  0  0  0  0  0  0  0  0  0
   10.2731   -7.9079    0.0000 O   0  0  0  0  0  0  0  0  0  0  0  0
   10.2694   -9.3368    0.0000 O   0  0  0  0  0  0  0  0  0  0  0  0
    4.5655   -9.4462    0.0000 C   0  0  0  0  0  0  0  0  0  0  0  0
    3.8611   -9.0394    0.0000 C   0  0  0  0  0  0  0  0  0  0  0  0
    3.1465   -9.4518    0.0000 C   0  0  0  0  0  0  0  0  0  0  0  0
    3.1464  -10.2768    0.0000 C   0  0  0  0  0  0  0  0  0  0  0  0
    3.8509  -10.6837    0.0000 C   0  0  0  0  0  0  0  0  0  0  0  0
    4.5654  -10.2712    0.0000 C   0  0  0  0  0  0  0  0  0  0  0  0
    5.2898  -10.6896    0.0000 O   0  0  0  0  0  0  0  0  0  0  0  0
    6.0646   -7.1288    0.0000 C   0  0  0  0  0  0  0  0  0  0  0  0
    6.7752   -6.7186    0.0000 C   0  0  0  0  0  0  0  0  0  0  0  0
    6.7753   -5.8936    0.0000 C   0  0  0  0  0  0  0  0  0  0  0  0
    6.0608   -5.4811    0.0000 C   0  0  0  0  0  0  0  0  0  0  0  0
    5.3502   -5.8913    0.0000 C   0  0  0  0  0  0  0  0  0  0  0  0
    5.3502   -6.7163    0.0000 C   0  0  0  0  0  0  0  0  0  0  0  0
    4.6419   -7.1253    0.0000 O   0  0  0  0  0  0  0  0  0  0  0  0
  1  2  1  0
  2  3  2  0
  3  4  1  0
  4  5  1  0
  1  5  2  0
  4  6  1  0
  6  7  2  0
  7  8  1  0
  8  9  2  0
  9 10  1  0
 10 11  2  0
  6 11  1  0
  9 12  1  0
 12 13  2  0
 12 14  1  0
  2 15  1  0
 15 16  2  0
 16 17  1  0
 17 18  2  0
 18 19  1  0
 19 20  2  0
 15 20  1  0
 20 21  1  0
  5 22  1  0
 22 23  2  0
 23 24  1  0
 24 25  2  0
 25 26  1  0
 26 27  2  0
 22 27  1  0
 27 28  1  0
M  END
$$$$
