1407
     RDKit          2D

 17 17  0  0  1  0  0  0  0  0999 V2000
    5.2224    1.8794    0.0000 Cl  0  0  0  0  0  0  0  0  0  0  0  0
    2.3645    1.8794    0.0000 Cl  0  0  0  0  0  0  0  0  0  0  0  0
    4.5080   -1.0082    0.0000 O   0  0  0  0  0  0  0  0  0  0  0  0
    3.0791   -1.8332    0.0000 N   0  0  0  0  0  0  0  0  0  0  0  0
    3.7935    2.7044    0.0000 N   0  0  0  0  0  0  0  0  0  0  0  0
    2.3645   -2.2457    0.0000 C   0  0  0  0  0  0  0  0  0  0  0  0
    3.0791   -1.0082    0.0000 C   0  0  0  0  0  0  0  0  0  0  0  0
    3.7935   -0.5957    0.0000 C   0  0  0  0  0  0  0  0  0  0  0  0
    1.6500   -2.6582    0.0000 C   0  0  0  0  0  0  0  0  0  0  0  0
    2.7770   -2.9602    0.0000 C   0  0  0  0  0  0  0  0  0  0  0  0
    1.9520   -1.5312    0.0000 C   0  0  0  0  0  0  0  0  0  0  0  0
    3.7935    0.2294    0.0000 C   0  0  0  0  0  0  0  0  0  0  0  0
    3.0791    0.6419    0.0000 C   0  0  0  0  0  0  0  0  0  0  0  0
    4.5080    0.6419    0.0000 C   0  0  0  0  0  0  0  0  0  0  0  0
    4.5080    1.4669    0.0000 C   0  0  0  0  0  0  0  0  0  0  0  0
    3.0791    1.4669    0.0000 C   0  0  0  0  0  0  0  0  0  0  0  0
    3.7935    1.8794    0.0000 C   0  0  0  0  0  0  0  0  0  0  0  0
  1 15  1  0
  2 16  1  0
  3  8  1  0
  4  6  1  0
  4  7  1  0
  5 17  1  0
  6  9  1  0
  6 10  1  0
  6 11  1  0
  7  8  1  0
  8 12  1  0
 12 13  2  0
 12 14  1  0
 13 16  1  0
 14 15  2  0
 15 17  1  0
 16 17  2  0
M  END
$$$$
