1399
     RDKit          2D

 19 20  0  0  0  0  0  0  0  0999 V2000
    4.5079   -0.0495    0.0000 O   0  0  0  0  0  0  0  0  0  0  0  0
    3.7934    1.1880    0.0000 O   0  0  0  0  0  0  0  0  0  0  0  0
    3.7934   -1.2870    0.0000 O   0  0  0  0  0  0  0  0  0  0  0  0
    6.6513    1.1880    0.0000 O   0  0  0  0  0  0  0  0  0  0  0  0
    5.2223    1.1880    0.0000 O   0  0  0  0  0  0  0  0  0  0  0  0
    5.2223   -0.4620    0.0000 C   0  0  0  0  0  0  0  0  0  0  0  0
    3.0790   -0.0495    0.0000 C   0  0  0  0  0  0  0  0  0  0  0  0
    5.9369   -0.0495    0.0000 C   0  0  0  0  0  0  0  0  0  0  0  0
    3.0790    0.7755    0.0000 C   0  0  0  0  0  0  0  0  0  0  0  0
    5.2223   -1.2870    0.0000 C   0  0  0  0  0  0  0  0  0  0  0  0
    3.7934   -0.4620    0.0000 C   0  0  0  0  0  0  0  0  0  0  0  0
    6.6513   -0.4620    0.0000 C   0  0  0  0  0  0  0  0  0  0  0  0
    2.3644   -0.4620    0.0000 C   0  0  0  0  0  0  0  0  0  0  0  0
    5.9369   -1.6995    0.0000 C   0  0  0  0  0  0  0  0  0  0  0  0
    6.6513   -1.2870    0.0000 C   0  0  0  0  0  0  0  0  0  0  0  0
    2.3644    1.1880    0.0000 C   0  0  0  0  0  0  0  0  0  0  0  0
    1.6500   -0.0495    0.0000 C   0  0  0  0  0  0  0  0  0  0  0  0
    1.6500    0.7755    0.0000 C   0  0  0  0  0  0  0  0  0  0  0  0
    5.9369    0.7755    0.0000 C   0  0  0  0  0  0  0  0  0  0  0  0
  1  6  1  0
  1 11  1  0
  2  9  1  0
  3 11  2  0
  4 19  1  0
  5 19  2  0
  6  8  2  0
  6 10  1  0
  7  9  2  0
  7 11  1  0
  7 13  1  0
  8 12  1  0
  8 19  1  0
  9 16  1  0
 10 14  2  0
 12 15  2  0
 13 17  2  0
 14 15  1  0
 16 18  2  0
 17 18  1  0
M  END
$$$$
