
     RDKit          2D

 73 80  0  0  0  0  0  0  0  0999 V2000
    1.1573   -0.2127    0.0000 N   0  0  0  0  0  0  0  0  0  0  0  0
    0.4450    0.2027    0.0000 C   0  0  0  0  0  0  0  0  0  0  0  0
   -0.2670    1.4391    0.0000 N   0  0  0  0  0  0  0  0  0  0  0  0
   -0.9842    1.0237    0.0000 C   0  0  0  0  0  0  0  0  0  0  0  0
   -2.5371    1.4391    0.0000 N   0  0  0  0  0  0  0  0  0  0  0  0
    0.4450    1.0237    0.0000 C   0  0  0  0  0  0  0  0  0  0  0  0
    1.1573   -1.0286    0.0000 C   0  0  0  0  0  0  0  0  0  0  0  0
   -0.2670   -1.0286    0.0000 N   0  0  0  0  0  0  0  0  0  0  0  0
   -3.8477   -1.4441    0.0000 C   0  0  0  0  0  0  0  0  0  0  0  0
   -3.2640    1.0335    0.0000 C   0  0  0  0  0  0  0  0  0  0  0  0
    0.4450   -1.4441    0.0000 C   0  0  0  0  0  0  0  0  0  0  0  0
   -4.6637   -0.9693    0.0000 C   0  0  0  0  0  0  0  0  0  0  0  0
   -1.6963   -1.0286    0.0000 C   0  0  0  0  0  0  0  0  0  0  0  0
   -4.5598   -2.6854    0.0000 C   0  0  0  0  0  0  0  0  0  0  0  0
   -4.6883    1.0533    0.0000 N   0  0  0  0  0  0  0  0  0  0  0  0
   -3.8477   -2.2750    0.0000 N   0  0  0  0  0  0  0  0  0  0  0  0
   -1.7062    1.4391    0.0000 C   0  0  0  0  0  0  0  0  0  0  0  0
   -4.5697   -3.5064    0.0000 C   0  0  0  0  0  0  0  0  0  0  0  0
   -2.4184   -1.4441    0.0000 O   0  0  0  0  0  0  0  0  0  0  0  0
    1.8694    0.2027    0.0000 C   0  0  0  0  0  0  0  0  0  0  0  0
   -0.9842   -1.4441    0.0000 C   0  0  0  0  0  0  0  0  0  0  0  0
    1.8694   -1.4540    0.0000 C   0  0  0  0  0  0  0  0  0  0  0  0
    2.5816   -0.2127    0.0000 C   0  0  0  0  0  0  0  0  0  0  0  0
    2.5816   -1.0286    0.0000 C   0  0  0  0  0  0  0  0  0  0  0  0
   -3.9614    1.4638    0.0000 C   0  0  0  0  0  0  0  0  0  0  0  0
   -3.1305   -1.0286    0.0000 C   0  0  0  0  0  0  0  0  0  0  0  0
    4.5202    2.4134    0.0000 N   0  0  0  0  0  0  0  0  0  0  0  0
   -5.2819   -3.9218    0.0000 N   0  0  0  0  0  0  0  0  0  0  0  0
    3.8279    1.3303    0.0000 C   0  0  0  0  0  0  0  0  0  0  0  0
    3.8279    0.5044    0.0000 S   0  0  0  0  0  0  0  0  0  0  0  0
   -0.2670   -0.2127    0.0000 O   0  0  0  0  0  0  0  0  0  0  0  0
    1.1573    1.4490    0.0000 C   0  0  0  0  0  0  0  0  0  0  0  0
   -0.9842    0.2027    0.0000 O   0  0  0  0  0  0  0  0  0  0  0  0
    3.4124   -0.2127    0.0000 C   0  0  0  0  0  0  0  0  0  0  0  0
   -3.2690    0.2077    0.0000 O   0  0  0  0  0  0  0  0  0  0  0  0
    3.7239    2.0721    0.0000 C   0  0  0  0  0  0  0  0  0  0  0  0
   -5.3857   -1.3797    0.0000 O   0  0  0  0  0  0  0  0  0  0  0  0
    0.4450   -2.2750    0.0000 O   0  0  0  0  0  0  0  0  0  0  0  0
   -1.6963   -0.2077    0.0000 O   0  0  0  0  0  0  0  0  0  0  0  0
   -3.8576   -3.9218    0.0000 C   0  0  0  0  0  0  0  0  0  0  0  0
   -5.2819   -2.2750    0.0000 O   0  0  0  0  0  0  0  0  0  0  0  0
    1.1573    3.9168    0.0000 C   0  0  0  0  0  0  0  0  0  0  0  0
    4.6588    1.6863    0.0000 C   0  0  0  0  0  0  0  0  0  0  0  0
    1.1573    4.7427    0.0000 N   0  0  0  0  0  0  0  0  0  0  0  0
    3.3086   -1.4441    0.0000 O   0  0  0  0  0  0  0  0  0  0  0  0
   -0.9842   -2.2750    0.0000 C   0  0  0  0  0  0  0  0  0  0  0  0
    1.8792    3.5015    0.0000 C   0  0  0  0  0  0  0  0  0  0  0  0
    0.4450    3.5015    0.0000 C   0  0  0  0  0  0  0  0  0  0  0  0
    5.3857    1.3451    0.0000 C   0  0  0  0  0  0  0  0  0  0  0  0
    4.7923    2.7003    0.0000 C   0  0  0  0  0  0  0  0  0  0  0  0
    5.2374    2.0920    0.0000 C   0  0  0  0  0  0  0  0  0  0  0  0
    4.5498    3.2937    0.0000 C   0  0  0  0  0  0  0  0  0  0  0  0
   -2.7794    2.2255    0.0000 C   0  0  0  0  0  0  0  0  0  0  0  0
   -0.2670    2.2650    0.0000 C   0  0  0  0  0  0  0  0  0  0  0  0
    1.1573    2.2650    0.0000 C   0  0  0  0  0  0  0  0  0  0  0  0
    0.4450    2.6804    0.0000 C   0  0  0  0  0  0  0  0  0  0  0  0
    1.8792    2.6804    0.0000 C   0  0  0  0  0  0  0  0  0  0  0  0
   -1.4441    2.2205    0.0000 C   0  0  0  0  0  0  0  0  0  0  0  0
   -3.1355   -3.5015    0.0000 O   0  0  0  0  0  0  0  0  0  0  0  0
   -3.9515    2.2849    0.0000 C   0  0  0  0  0  0  0  0  0  0  0  0
   -2.1118    2.7101    0.0000 C   0  0  0  0  0  0  0  0  0  0  0  0
   -3.1305   -0.2077    0.0000 C   0  0  0  0  0  0  0  0  0  0  0  0
   -5.2819   -4.7477    0.0000 C   0  0  0  0  0  0  0  0  0  0  0  0
    0.4450    5.1581    0.0000 C   0  0  0  0  0  0  0  0  0  0  0  0
    1.8694    5.1631    0.0000 C   0  0  0  0  0  0  0  0  0  0  0  0
   -3.8477   -4.7477    0.0000 C   0  0  0  0  0  0  0  0  0  0  0  0
   -0.2670   -2.6756    0.0000 C   0  0  0  0  0  0  0  0  0  0  0  0
   -1.7062   -2.6756    0.0000 C   0  0  0  0  0  0  0  0  0  0  0  0
   -3.2344    2.6804    0.0000 C   0  0  0  0  0  0  0  0  0  0  0  0
   -4.5697   -5.1631    0.0000 C   0  0  0  0  0  0  0  0  0  0  0  0
   -1.7062   -3.5064    0.0000 C   0  0  0  0  0  0  0  0  0  0  0  0
   -0.2670   -3.5064    0.0000 C   0  0  0  0  0  0  0  0  0  0  0  0
   -0.9842   -3.9218    0.0000 C   0  0  0  0  0  0  0  0  0  0  0  0
  2  1  1  0
  3  6  1  0
  4  3  1  0
  5 17  1  0
  6  2  1  0
  7  1  1  0
  8 11  1  0
  9 26  1  0
 10  5  1  0
  7 11  1  0
 12  9  1  0
 13 21  1  0
 14 16  1  0
 15 25  1  0
  9 16  1  6
 17  4  1  0
 18 14  1  0
 19 13  1  0
 20  1  1  0
 21  8  1  0
  7 22  1  1
 23 20  1  0
 24 23  1  0
 25 10  1  0
 26 19  1  0
 27 36  1  0
 28 18  2  0
 29 30  1  6
 30 34  1  0
 31  2  2  0
  6 32  1  1
 33  4  2  0
 23 34  1  1
 35 10  2  0
 36 29  1  0
 37 12  2  0
 38 11  2  0
 39 13  2  0
 40 18  1  0
 41 14  2  0
 42 47  2  0
 43 29  1  0
 44 42  1  0
 45 24  2  0
 21 46  1  1
 47 57  1  0
 48 56  2  0
 49 43  1  0
 50 43  1  0
 51 49  1  0
 52 50  1  0
 53  5  1  0
 54  3  1  0
 55 32  1  0
 56 55  1  0
 57 55  2  0
 17 58  1  1
 59 40  1  0
 25 60  1  6
 61 58  1  0
 26 62  1  1
 63 28  1  0
 64 44  1  0
 65 44  1  0
 66 40  2  0
 67 46  2  0
 68 46  1  0
 69 60  1  0
 70 66  1  0
 71 68  2  0
 72 67  1  0
 73 71  1  0
 24 22  1  0
 42 48  1  0
 61 53  1  0
 52 27  1  0
 51 27  1  0
 73 72  2  0
 12 15  1  0
 70 63  2  0
M  END
$$$$
