1396
     RDKit          2D

 54 61  0  0  1  0  0  0  0  0999 V2000
   15.1106   -1.2857    0.0000 O   0  0  0  0  0  0  0  0  0  0  0  0
   10.6613   -2.1538    0.0000 O   0  0  0  0  0  0  0  0  0  0  0  0
   16.1499    2.7348    0.0000 O   0  0  0  0  0  0  0  0  0  0  0  0
    9.9516   -0.9136    0.0000 O   0  0  0  0  0  0  0  0  0  0  0  0
   17.6024    2.9624    0.0000 O   0  0  0  0  0  0  0  0  0  0  0  0
    7.8034   -2.1428    0.0000 O   0  0  0  0  0  0  0  0  0  0  0  0
    7.8098   -0.4928    0.0000 O   0  0  0  0  0  0  0  0  0  0  0  0
    7.0905   -1.7276    0.0000 O   0  0  0  0  0  0  0  0  0  0  0  0
    4.9455   -2.1318    0.0000 O   0  0  0  0  0  0  0  0  0  0  0  0
    4.9519   -0.4818    0.0000 O   0  0  0  0  0  0  0  0  0  0  0  0
    3.5166   -2.1263    0.0000 O   0  0  0  0  0  0  0  0  0  0  0  0
    3.5261    0.3487    0.0000 O   0  0  0  0  0  0  0  0  0  0  0  0
    2.0940   -0.4707    0.0000 O   0  0  0  0  0  0  0  0  0  0  0  0
   15.1106   -0.4607    0.0000 C   0  0  0  0  0  0  0  0  0  0  0  0
   14.3961   -0.8732    0.0000 C   0  0  0  0  0  0  0  0  0  0  0  0
   13.6817   -0.4607    0.0000 C   0  0  0  0  0  0  0  0  0  0  0  0
   15.1106    0.3643    0.0000 C   0  0  0  0  0  0  0  0  0  0  0  0
   12.9309   -0.8788    0.0000 C   0  0  0  0  0  0  0  0  0  0  0  0
   12.9243   -1.7381    0.0000 C   0  0  0  0  0  0  0  0  0  0  0  0
   13.6817    0.3643    0.0000 C   0  0  0  0  0  0  0  0  0  0  0  0
   14.3961    0.7768    0.0000 C   0  0  0  0  0  0  0  0  0  0  0  0
   15.8912    0.6158    0.0000 C   0  0  0  0  0  0  0  0  0  0  0  0
   14.4094   -1.7324    0.0000 C   0  0  0  0  0  0  0  0  0  0  0  0
   15.8912   -0.7121    0.0000 C   0  0  0  0  0  0  0  0  0  0  0  0
   13.6685   -2.1678    0.0000 C   0  0  0  0  0  0  0  0  0  0  0  0
   16.3728   -0.0482    0.0000 C   0  0  0  0  0  0  0  0  0  0  0  0
   12.1662   -0.4134    0.0000 C   0  0  0  0  0  0  0  0  0  0  0  0
   12.1525   -2.1916    0.0000 C   0  0  0  0  0  0  0  0  0  0  0  0
   15.1106    1.1893    0.0000 C   0  0  0  0  0  0  0  0  0  0  0  0
   12.9373   -0.0538    0.0000 C   0  0  0  0  0  0  0  0  0  0  0  0
   11.3843   -0.8490    0.0000 C   0  0  0  0  0  0  0  0  0  0  0  0
   11.3774   -1.7441    0.0000 C   0  0  0  0  0  0  0  0  0  0  0  0
   16.1476    1.4000    0.0000 C   0  0  0  0  0  0  0  0  0  0  0  0
   15.6638    2.0682    0.0000 C   0  0  0  0  0  0  0  0  0  0  0  0
   16.9326    1.6536    0.0000 C   0  0  0  0  0  0  0  0  0  0  0  0
    9.9484   -1.7386    0.0000 C   0  0  0  0  0  0  0  0  0  0  0  0
   16.9340    2.4786    0.0000 C   0  0  0  0  0  0  0  0  0  0  0  0
    9.2323   -2.1483    0.0000 C   0  0  0  0  0  0  0  0  0  0  0  0
    8.5194   -1.7331    0.0000 C   0  0  0  0  0  0  0  0  0  0  0  0
    9.2387   -0.4983    0.0000 C   0  0  0  0  0  0  0  0  0  0  0  0
    8.5227   -0.9081    0.0000 C   0  0  0  0  0  0  0  0  0  0  0  0
    9.2419    0.3267    0.0000 C   0  0  0  0  0  0  0  0  0  0  0  0
    7.0937   -0.9026    0.0000 C   0  0  0  0  0  0  0  0  0  0  0  0
    6.3808   -0.4873    0.0000 C   0  0  0  0  0  0  0  0  0  0  0  0
    5.6648   -0.8970    0.0000 C   0  0  0  0  0  0  0  0  0  0  0  0
    6.3744   -2.1373    0.0000 C   0  0  0  0  0  0  0  0  0  0  0  0
    5.6615   -1.7220    0.0000 C   0  0  0  0  0  0  0  0  0  0  0  0
    6.3713   -2.9624    0.0000 C   0  0  0  0  0  0  0  0  0  0  0  0
    4.2326   -1.7165    0.0000 C   0  0  0  0  0  0  0  0  0  0  0  0
    4.2358   -0.8916    0.0000 C   0  0  0  0  0  0  0  0  0  0  0  0
    3.5230   -0.4763    0.0000 C   0  0  0  0  0  0  0  0  0  0  0  0
    2.8037   -1.7111    0.0000 C   0  0  0  0  0  0  0  0  0  0  0  0
    2.8068   -0.8861    0.0000 C   0  0  0  0  0  0  0  0  0  0  0  0
    2.0876   -2.1208    0.0000 C   0  0  0  0  0  0  0  0  0  0  0  0
 14  1  1  1
 32  2  1  1
 36  2  1  1
  3 34  1  0
  3 37  1  0
  4 36  1  0
  4 40  1  0
  5 37  2  0
 39  6  1  6
 41  7  1  6
 43  7  1  6
  8 43  1  0
  8 46  1  0
 47  9  1  1
 49  9  1  6
 45 10  1  1
 11 49  1  0
 11 52  1  0
 51 12  1  1
 53 13  1  1
 14 15  1  0
 14 17  1  0
 14 24  1  0
 15 16  1  0
 15 23  1  6
 16 18  1  0
 16 20  1  1
 17 21  1  0
 17 22  1  0
 17 29  1  1
 18 19  1  0
 18 27  1  0
 18 30  1  1
 19 25  1  6
 19 28  1  0
 20 21  1  0
 22 26  1  0
 22 33  1  1
 23 25  1  0
 24 26  1  0
 27 31  1  0
 28 32  1  0
 31 32  1  0
 33 34  1  0
 33 35  2  0
 35 37  1  0
 36 38  1  0
 38 39  1  0
 39 41  1  0
 40 41  1  0
 40 42  1  1
 43 44  1  0
 44 45  1  0
 45 47  1  0
 46 47  1  0
 46 48  1  6
 49 50  1  0
 50 51  1  0
 51 53  1  0
 52 53  1  0
 52 54  1  6
M  END
$$$$
