1193
     RDKit          2D

 24 24  0  0  1  0  0  0  0  0999 V2000
    5.9370    1.4438    0.0000 O   0  0  0  0  0  0  0  0  0  0  0  0
    4.5080    2.2688    0.0000 O   0  0  0  0  0  0  0  0  0  0  0  0
    6.6515    2.6813    0.0000 O   0  0  0  0  0  0  0  0  0  0  0  0
    8.0804   -1.4438    0.0000 O   0  0  0  0  0  0  0  0  0  0  0  0
    3.0791    1.4438    0.0000 N   0  0  0  0  0  0  0  0  0  0  0  0
    8.7949   -0.2063    0.0000 N   0  0  0  0  0  0  0  0  0  0  0  0
    4.5080    1.4438    0.0000 C   0  0  0  0  0  0  0  0  0  0  0  0
    3.7935    1.0313    0.0000 C   0  0  0  0  0  0  0  0  0  0  0  0
    2.3645    1.0313    0.0000 C   0  0  0  0  0  0  0  0  0  0  0  0
    5.2224    1.0313    0.0000 C   0  0  0  0  0  0  0  0  0  0  0  0
    1.6500    1.4438    0.0000 C   0  0  0  0  0  0  0  0  0  0  0  0
    2.3645    0.2063    0.0000 C   0  0  0  0  0  0  0  0  0  0  0  0
    6.6515    1.0313    0.0000 C   0  0  0  0  0  0  0  0  0  0  0  0
    7.3659    1.4438    0.0000 C   0  0  0  0  0  0  0  0  0  0  0  0
    8.0804    0.2063    0.0000 C   0  0  0  0  0  0  0  0  0  0  0  0
    8.0804    1.0313    0.0000 C   0  0  0  0  0  0  0  0  0  0  0  0
    6.6515    0.2063    0.0000 C   0  0  0  0  0  0  0  0  0  0  0  0
    7.3659   -0.2063    0.0000 C   0  0  0  0  0  0  0  0  0  0  0  0
    9.5094   -1.4438    0.0000 C   0  0  0  0  0  0  0  0  0  0  0  0
    9.5094   -2.2688    0.0000 C   0  0  0  0  0  0  0  0  0  0  0  0
    7.3659    2.2688    0.0000 C   0  0  0  0  0  0  0  0  0  0  0  0
    8.7949   -1.0313    0.0000 C   0  0  0  0  0  0  0  0  0  0  0  0
   10.2239   -2.6813    0.0000 C   0  0  0  0  0  0  0  0  0  0  0  0
    8.0804    2.6813    0.0000 C   0  0  0  0  0  0  0  0  0  0  0  0
  1 10  1  0
  1 13  1  0
  2  7  1  0
  3 21  2  0
  4 22  2  0
  5  8  1  0
  5  9  1  0
  6 15  1  0
  6 22  1  0
  7  8  1  0
  7 10  1  0
  9 11  1  0
  9 12  1  0
 13 14  2  0
 13 17  1  0
 14 16  1  0
 14 21  1  0
 15 16  2  0
 15 18  1  0
 17 18  2  0
 19 20  1  0
 19 22  1  0
 20 23  1  0
 21 24  1  0
M  END
$$$$
