 
     RDKit          2D

 57 62  0  0  1  0  0  0  0  0999 V2000
   19.8000   -6.6747    0.0000 C   0  0  0  0  0  0  0  0  0  0  0  0
   19.8000   -7.5409    0.0000 C   0  0  0  0  0  0  0  0  0  0  0  0
   21.2437   -7.4997    0.0000 O   0  0  0  0  0  0  0  0  0  0  0  0
   21.2437   -6.6747    0.0000 C   0  0  0  0  0  0  0  0  0  0  0  0
   20.5012   -6.2622    0.0000 C   0  0  0  0  0  0  0  0  0  0  0  0
   22.6462   -6.6747    0.0000 C   0  0  0  0  0  0  0  0  0  0  0  0
   21.9450   -6.2622    0.0000 C   0  0  0  0  0  0  0  0  0  0  0  0
   23.3886   -7.9534    0.0000 C   0  0  0  0  0  0  0  0  0  0  0  0
   24.0898   -7.5409    0.0000 C   0  0  0  0  0  0  0  0  0  0  0  0
   24.0898   -6.6747    0.0000 C   0  0  0  0  0  0  0  0  0  0  0  0
   23.3886   -6.2622    0.0000 C   0  0  0  0  0  0  0  0  0  0  0  0
   21.9450   -5.4372    0.0000 C   0  0  0  0  0  0  0  0  0  0  0  0
   20.5012   -5.4372    0.0000 C   0  0  0  0  0  0  0  0  0  0  0  0
   19.0988   -6.2622    0.0000 O   0  0  0  0  0  0  0  0  0  0  0  0
   24.7911   -7.9534    0.0000 C   0  0  0  0  0  0  0  0  0  0  0  0
   22.6874   -7.5409    0.0000 O   0  0  0  0  0  0  0  0  0  0  0  0
   23.3886   -8.9434    0.0000 N   0  0  0  0  0  0  0  0  0  0  0  0
   19.0988   -7.9534    0.0000 C   0  0  0  0  0  0  0  0  0  0  0  0
   18.3975   -7.5409    0.0000 O   0  0  0  0  0  0  0  0  0  0  0  0
   19.0988   -8.9434    0.0000 C   0  0  0  0  0  0  0  0  0  0  0  0
   22.6874   -9.3559    0.0000 C   0  0  0  0  0  0  0  0  0  0  0  0
   22.6874  -10.1809    0.0000 C   0  0  0  0  0  0  0  0  0  0  0  0
   21.9450   -8.9434    0.0000 C   0  0  0  0  0  0  0  0  0  0  0  0
   21.2437   -9.3559    0.0000 C   0  0  0  0  0  0  0  0  0  0  0  0
   21.2437  -10.1809    0.0000 C   0  0  0  0  0  0  0  0  0  0  0  0
   21.9450  -10.5933    0.0000 C   0  0  0  0  0  0  0  0  0  0  0  0
   20.5425   -8.9434    0.0000 C   0  0  0  0  0  0  0  0  0  0  0  0
   19.8000   -9.3559    0.0000 C   0  0  0  0  0  0  0  0  0  0  0  0
   19.8000  -10.1809    0.0000 C   0  0  0  0  0  0  0  0  0  0  0  0
   20.5425  -10.5933    0.0000 C   0  0  0  0  0  0  0  0  0  0  0  0
   21.9450   -8.1184    0.0000 O   0  0  0  0  0  0  0  0  0  0  0  0
   20.5425   -8.1184    0.0000 O   0  0  0  0  0  0  0  0  0  0  0  0
   19.0988   -6.8809    0.0000 C   0  0  0  0  0  0  0  0  0  0  0  0
   17.6550   -7.1284    0.0000 C   0  0  0  0  0  0  0  0  0  0  0  0
   16.9538   -7.5409    0.0000 C   0  0  0  0  0  0  0  0  0  0  0  0
   17.6550   -6.3034    0.0000 O   0  0  0  0  0  0  0  0  0  0  0  0
   18.3975   -9.3559    0.0000 C   0  0  0  0  0  0  0  0  0  0  0  0
   17.6963   -8.9434    0.0000 O   0  0  0  0  0  0  0  0  0  0  0  0
   18.3975  -10.1809    0.0000 C   0  0  0  0  0  0  0  0  0  0  0  0
   18.3975   -8.3659    0.0000 C   0  0  0  0  0  0  0  0  0  0  0  0
   16.9951   -9.3559    0.0000 C   0  0  0  0  0  0  0  0  0  0  0  0
   17.6963  -10.5933    0.0000 C   0  0  0  0  0  0  0  0  0  0  0  0
   17.6963  -11.4183    0.0000 O   0  0  0  0  0  0  0  0  0  0  0  0
   19.0988  -10.5933    0.0000 O   0  0  0  0  0  0  0  0  0  0  0  0
   19.0988  -11.4183    0.0000 C   0  0  0  0  0  0  0  0  0  0  0  0
   20.5425  -11.4183    0.0000 C   0  0  0  0  0  0  0  0  0  0  0  0
   19.0988  -12.2433    0.0000 C   0  0  0  0  0  0  0  0  0  0  0  0
   19.8000   -8.5309    0.0000 C   0  0  0  0  0  0  0  0  0  0  0  0
   21.9450  -11.4183    0.0000 N   0  0  0  0  0  0  0  0  0  0  0  0
   23.3886  -11.4183    0.0000 C   0  0  0  0  0  0  0  0  0  0  0  0
   23.3886  -10.5933    0.0000 N   0  0  0  0  0  0  0  0  0  0  0  0
   21.2024  -11.8308    0.0000 O   0  0  0  0  0  0  0  0  0  0  0  0
   24.1360  -11.8498    0.0000 C   0  0  0  0  0  0  0  0  0  0  0  0
   24.8835  -11.4183    0.0000 C   0  0  0  0  0  0  0  0  0  0  0  0
   24.8835  -10.5933    0.0000 C   0  0  0  0  0  0  0  0  0  0  0  0
   24.1360  -10.1618    0.0000 C   0  0  0  0  0  0  0  0  0  0  0  0
   25.6496  -11.8604    0.0000 C   0  0  0  0  0  0  0  0  0  0  0  0
  1  2  1  0
  4  3  1  6
  4  5  1  0
  1  5  1  0
  6  7  1  0
  4  7  1  0
  8  9  1  0
  9 10  2  0
 10 11  1  0
  6 11  2  0
  7 12  1  1
  5 13  1  6
  1 14  1  6
  9 15  1  0
  8 16  2  0
  8 17  1  0
  2 18  1  0
 18 19  1  1
 18 20  1  0
 17 21  1  0
 21 22  1  0
 21 23  2  0
 23 24  1  0
 24 25  1  0
 25 26  1  0
 24 27  2  0
 27 28  1  0
 28 29  2  0
 29 30  1  0
 25 30  2  0
 23 31  1  0
 27 32  1  0
  2 33  1  1
 19 34  1  0
 34 35  1  0
 34 36  2  0
 26 22  2  0
 20 37  1  0
 37 38  1  6
 37 39  1  0
 20 40  1  6
 38 41  1  0
 39 42  2  0
 42 43  1  0
 29 44  1  0
 44 45  1  0
 43 45  1  0
 30 46  1  0
 45 46  1  0
 45 47  1  6
 28 48  1  0
 26 49  1  0
 50 51  1  0
 22 51  1  0
 52 46  2  0
 49 50  2  0
 50 53  1  0
 53 54  2  0
 54 55  1  0
 55 56  2  0
 51 56  1  0
 54 57  1  0
M  END
$$$$
