1221
     RDKit          2D

 16 17  0  0  1  0  0  0  0  0999 V2000
    4.6295   -0.6759    0.0000 Cl  0  0  0  0  0  0  0  0  0  0  0  0
    1.6500   -0.1115    0.0000 O   0  0  0  0  0  0  0  0  0  0  0  0
    2.6665    0.6029    0.0000 N   0  0  0  0  0  0  0  0  0  0  0  0
    3.0790   -0.1115    0.0000 C   0  0  0  0  0  0  0  0  0  0  0  0
    3.7935   -0.5240    0.0000 C   0  0  0  0  0  0  0  0  0  0  0  0
    3.7935   -1.3491    0.0000 C   0  0  0  0  0  0  0  0  0  0  0  0
    3.0790   -1.7616    0.0000 C   0  0  0  0  0  0  0  0  0  0  0  0
    2.3645   -0.5240    0.0000 C   0  0  0  0  0  0  0  0  0  0  0  0
    2.3645   -1.3491    0.0000 C   0  0  0  0  0  0  0  0  0  0  0  0
    3.7110    0.4188    0.0000 C   0  0  0  0  0  0  0  0  0  0  0  0
    4.4863    0.1366    0.0000 C   0  0  0  0  0  0  0  0  0  0  0  0
    3.5677    1.2312    0.0000 C   0  0  0  0  0  0  0  0  0  0  0  0
    1.8415    0.6029    0.0000 C   0  0  0  0  0  0  0  0  0  0  0  0
    5.1182    0.6669    0.0000 C   0  0  0  0  0  0  0  0  0  0  0  0
    4.1997    1.7616    0.0000 C   0  0  0  0  0  0  0  0  0  0  0  0
    4.9750    1.4794    0.0000 C   0  0  0  0  0  0  0  0  0  0  0  0
  1 11  1  0
  2  8  2  0
  3  4  1  0
  3 13  1  0
  4  5  1  0
  4  8  1  0
  4 10  1  0
  5  6  1  0
  6  7  1  0
  7  9  1  0
  8  9  1  0
 10 11  2  0
 10 12  1  0
 11 14  1  0
 12 15  2  0
 14 16  2  0
 15 16  1  0
M  END
$$$$
