1138
     RDKit          2D

 29 32  0  0  1  0  0  0  0  0999 V2000
    2.4705    1.7861    0.0000 S   0  0  0  0  0  0  0  0  0  0  0  0
    4.4148    0.3649    0.0000 O   0  0  0  0  0  0  0  0  0  0  0  0
    2.0653   -1.3421    0.0000 O   0  0  0  0  0  0  0  0  0  0  0  0
    1.6500    1.6999    0.0000 O   0  0  0  0  0  0  0  0  0  0  0  0
    4.1848   -1.0871    0.0000 N   0  0  0  0  0  0  0  0  0  0  0  0
    3.5174   -1.5721    0.0000 N   0  0  0  0  0  0  0  0  0  0  0  0
    3.1049   -0.3025    0.0000 C   0  0  0  0  0  0  0  0  0  0  0  0
    2.6199    0.3649    0.0000 C   0  0  0  0  0  0  0  0  0  0  0  0
    3.9299   -0.3025    0.0000 C   0  0  0  0  0  0  0  0  0  0  0  0
    2.8499   -1.0871    0.0000 C   0  0  0  0  0  0  0  0  0  0  0  0
    2.9555    1.1186    0.0000 C   0  0  0  0  0  0  0  0  0  0  0  0
    4.9694   -1.3421    0.0000 C   0  0  0  0  0  0  0  0  0  0  0  0
    3.5174   -2.3971    0.0000 C   0  0  0  0  0  0  0  0  0  0  0  0
    5.5826   -0.7900    0.0000 C   0  0  0  0  0  0  0  0  0  0  0  0
    4.2318   -2.8096    0.0000 C   0  0  0  0  0  0  0  0  0  0  0  0
    5.1409   -2.1491    0.0000 C   0  0  0  0  0  0  0  0  0  0  0  0
    2.8028   -2.8096    0.0000 C   0  0  0  0  0  0  0  0  0  0  0  0
    2.8061    2.5397    0.0000 C   0  0  0  0  0  0  0  0  0  0  0  0
    6.3672   -1.0450    0.0000 C   0  0  0  0  0  0  0  0  0  0  0  0
    4.2318   -3.6346    0.0000 C   0  0  0  0  0  0  0  0  0  0  0  0
    5.9256   -2.4040    0.0000 C   0  0  0  0  0  0  0  0  0  0  0  0
    2.8028   -3.6346    0.0000 C   0  0  0  0  0  0  0  0  0  0  0  0
    6.5387   -1.8520    0.0000 C   0  0  0  0  0  0  0  0  0  0  0  0
    3.5174   -4.0471    0.0000 C   0  0  0  0  0  0  0  0  0  0  0  0
    3.6266    2.6260    0.0000 C   0  0  0  0  0  0  0  0  0  0  0  0
    2.3212    3.2073    0.0000 C   0  0  0  0  0  0  0  0  0  0  0  0
    3.9621    3.3797    0.0000 C   0  0  0  0  0  0  0  0  0  0  0  0
    2.6567    3.9609    0.0000 C   0  0  0  0  0  0  0  0  0  0  0  0
    3.4772    4.0471    0.0000 C   0  0  0  0  0  0  0  0  0  0  0  0
  1  4  2  0
  1 11  1  0
  1 18  1  0
  2  9  2  0
  3 10  2  0
  5  6  1  0
  5  9  1  0
  5 12  1  0
  6 10  1  0
  6 13  1  0
  7  8  1  0
  7  9  1  0
  7 10  1  0
  8 11  1  0
 12 14  2  0
 12 16  1  0
 13 15  2  0
 13 17  1  0
 14 19  1  0
 15 20  1  0
 16 21  2  0
 17 22  2  0
 18 25  2  0
 18 26  1  0
 19 23  2  0
 20 24  2  0
 21 23  1  0
 22 24  1  0
 25 27  1  0
 26 28  2  0
 27 29  2  0
 28 29  1  0
M  END
$$$$
