1133
     RDKit          2D

 17 17  0  0  0  0  0  0  0  0999 V2000
    2.3644   -2.8091    0.0000 Cl  0  0  0  0  0  0  0  0  0  0  0  0
    2.3644    0.4909    0.0000 S   0  0  0  0  0  0  0  0  0  0  0  0
    3.0790    1.7284    0.0000 P   0  0  0  0  0  0  0  0  0  0  0  0
    3.7934    0.4909    0.0000 P   0  0  0  0  0  0  0  0  0  0  0  0
    3.0790    2.5534    0.0000 O   0  0  0  0  0  0  0  0  0  0  0  0
    3.9040    1.7284    0.0000 O   0  0  0  0  0  0  0  0  0  0  0  0
    4.5079    0.0784    0.0000 O   0  0  0  0  0  0  0  0  0  0  0  0
    4.2059    1.2053    0.0000 O   0  0  0  0  0  0  0  0  0  0  0  0
    2.2540    1.7284    0.0000 O   0  0  0  0  0  0  0  0  0  0  0  0
    3.3809   -0.2236    0.0000 O   0  0  0  0  0  0  0  0  0  0  0  0
    3.0790    0.9034    0.0000 C   0  0  0  0  0  0  0  0  0  0  0  0
    2.3644   -0.3341    0.0000 C   0  0  0  0  0  0  0  0  0  0  0  0
    3.0790   -0.7466    0.0000 C   0  0  0  0  0  0  0  0  0  0  0  0
    1.6500   -0.7466    0.0000 C   0  0  0  0  0  0  0  0  0  0  0  0
    3.0790   -1.5716    0.0000 C   0  0  0  0  0  0  0  0  0  0  0  0
    1.6500   -1.5716    0.0000 C   0  0  0  0  0  0  0  0  0  0  0  0
    2.3644   -1.9841    0.0000 C   0  0  0  0  0  0  0  0  0  0  0  0
  1 17  1  0
  2 11  1  0
  2 12  1  0
  3  5  1  0
  3  6  1  0
  3  9  2  0
  3 11  1  0
  4  7  1  0
  4  8  1  0
  4 10  2  0
  4 11  1  0
 12 13  2  0
 12 14  1  0
 13 15  1  0
 14 16  2  0
 15 17  2  0
 16 17  1  0
M  END
$$$$
