
     RDKit          2D

 68 71  0  0  0  0  0  0  0  0999 V2000
   -3.5644    3.0356    0.0000 N   0  0  0  0  0  0  0  0  0  0  0  0
   -2.8630    3.4482    0.0000 C   0  0  0  0  0  0  0  0  0  0  0  0
   -3.5644    2.2106    0.0000 C   0  0  0  0  0  0  0  0  0  0  0  0
   -4.3070    3.4482    0.0000 C   0  0  0  0  0  0  0  0  0  0  0  0
   -2.1617    3.0356    0.0000 C   0  0  0  0  0  0  0  0  0  0  0  0
   -2.8630    4.2732    0.0000 C   0  0  0  0  0  0  0  0  0  0  0  0
   -4.3070    1.7981    0.0000 C   0  0  0  0  0  0  0  0  0  0  0  0
   -2.8630    1.7981    0.0000 O   0  0  0  0  0  0  0  0  0  0  0  0
   -4.3070    4.2732    0.0000 C   0  0  0  0  0  0  0  0  0  0  0  0
   -1.4604    3.4482    0.0000 O   0  0  0  0  0  0  0  0  0  0  0  0
   -2.1617    2.3755    0.0000 O   0  0  0  0  0  0  0  0  0  0  0  0
   -3.5644    4.7270    0.0000 C   0  0  0  0  0  0  0  0  0  0  0  0
   -4.3070    0.9729    0.0000 C   0  0  0  0  0  0  0  0  0  0  0  0
   -5.0083    2.2518    0.0000 O   0  0  0  0  0  0  0  0  0  0  0  0
   -0.7178    3.0356    0.0000 C   0  0  0  0  0  0  0  0  0  0  0  0
   -3.6057    0.5603    0.0000 O   0  0  0  0  0  0  0  0  0  0  0  0
   -5.0496    0.5603    0.0000 C   0  0  0  0  0  0  0  0  0  0  0  0
   -3.6434    1.3755    0.0000 O   0  0  0  0  0  0  0  0  0  0  0  0
   -0.0165    3.4482    0.0000 C   0  0  0  0  0  0  0  0  0  0  0  0
   -0.7178    2.2106    0.0000 C   0  0  0  0  0  0  0  0  0  0  0  0
   -3.5062   -0.0988    0.0000 C   0  0  0  0  0  0  0  0  0  0  0  0
   -5.0496   -0.2234    0.0000 C   0  0  0  0  0  0  0  0  0  0  0  0
   -5.7509    1.0142    0.0000 C   0  0  0  0  0  0  0  0  0  0  0  0
    0.7260    3.0356    0.0000 C   0  0  0  0  0  0  0  0  0  0  0  0
   -0.0165    4.2732    0.0000 C   0  0  0  0  0  0  0  0  0  0  0  0
   -0.0165    1.7981    0.0000 C   0  0  0  0  0  0  0  0  0  0  0  0
   -2.9044   -0.6772    0.0000 C   0  0  0  0  0  0  0  0  0  0  0  0
   -4.3070   -0.6772    0.0000 C   0  0  0  0  0  0  0  0  0  0  0  0
    1.4275    3.4482    0.0000 C   0  0  0  0  0  0  0  0  0  0  0  0
   -0.0165    0.9729    0.0000 C   0  0  0  0  0  0  0  0  0  0  0  0
    0.7260    2.2518    0.0000 O   0  0  0  0  0  0  0  0  0  0  0  0
   -2.9044   -1.5024    0.0000 C   0  0  0  0  0  0  0  0  0  0  0  0
    2.1287    3.0356    0.0000 C   0  0  0  0  0  0  0  0  0  0  0  0
    1.4275    4.2732    0.0000 C   0  0  0  0  0  0  0  0  0  0  0  0
    0.7260    0.5603    0.0000 C   0  0  0  0  0  0  0  0  0  0  0  0
   -0.7178    0.5603    0.0000 C   0  0  0  0  0  0  0  0  0  0  0  0
   -2.2030   -1.9149    0.0000 C   0  0  0  0  0  0  0  0  0  0  0  0
   -3.6057   -1.9149    0.0000 O   0  0  0  0  0  0  0  0  0  0  0  0
    2.8300    3.4482    0.0000 C   0  0  0  0  0  0  0  0  0  0  0  0
    2.1287    4.6858    0.0000 C   0  0  0  0  0  0  0  0  0  0  0  0
    0.7260   -0.2234    0.0000 C   0  0  0  0  0  0  0  0  0  0  0  0
   -2.2030   -2.7400    0.0000 C   0  0  0  0  0  0  0  0  0  0  0  0
   -1.4604   -1.5024    0.0000 C   0  0  0  0  0  0  0  0  0  0  0  0
   -3.6057   -2.7400    0.0000 C   0  0  0  0  0  0  0  0  0  0  0  0
    2.8300    4.2732    0.0000 C   0  0  0  0  0  0  0  0  0  0  0  0
    3.5726    3.0356    0.0000 O   0  0  0  0  0  0  0  0  0  0  0  0
    1.4275   -0.6360    0.0000 C   0  0  0  0  0  0  0  0  0  0  0  0
   -0.0165   -0.6360    0.0000 C   0  0  0  0  0  0  0  0  0  0  0  0
   -1.5016   -3.1526    0.0000 C   0  0  0  0  0  0  0  0  0  0  0  0
    3.5726    4.7270    0.0000 O   0  0  0  0  0  0  0  0  0  0  0  0
    1.4275   -1.4611    0.0000 C   0  0  0  0  0  0  0  0  0  0  0  0
    2.1287   -0.2234    0.0000 O   0  0  0  0  0  0  0  0  0  0  0  0
   -1.5016   -3.9776    0.0000 C   0  0  0  0  0  0  0  0  0  0  0  0
    2.1287   -1.8736    0.0000 C   0  0  0  0  0  0  0  0  0  0  0  0
    0.6848   -1.8736    0.0000 O   0  0  0  0  0  0  0  0  0  0  0  0
   -0.7590   -4.3902    0.0000 C   0  0  0  0  0  0  0  0  0  0  0  0
    2.1287   -2.6988    0.0000 C   0  0  0  0  0  0  0  0  0  0  0  0
    2.8300   -1.4611    0.0000 O   0  0  0  0  0  0  0  0  0  0  0  0
    0.6848   -2.6988    0.0000 C   0  0  0  0  0  0  0  0  0  0  0  0
   -0.0578   -3.9776    0.0000 C   0  0  0  0  0  0  0  0  0  0  0  0
    1.4275   -3.1114    0.0000 C   0  0  0  0  0  0  0  0  0  0  0  0
    2.8300   -3.1114    0.0000 C   0  0  0  0  0  0  0  0  0  0  0  0
    0.7672   -3.9776    0.0000 C   0  0  0  0  0  0  0  0  0  0  0  0
    0.9736   -4.7616    0.0000 C   0  0  0  0  0  0  0  0  0  0  0  0
    4.3082    4.3263    0.0000 C   0  0  0  0  0  0  0  0  0  0  0  0
    5.0199    4.7616    0.0000 C   0  0  0  0  0  0  0  0  0  0  0  0
    5.7509    4.3638    0.0000 O   0  0  0  0  0  0  0  0  0  0  0  0
    4.2803    3.4599    0.0000 C   0  0  0  0  0  0  0  0  0  0  0  0
  1  2  1  0
  1  3  1  0
  1  4  1  0
  2  5  1  0
  2  6  1  1
  3  7  1  0
  3  8  2  0
  4  9  1  0
  5 10  1  0
  5 11  2  0
  6 12  1  0
  7 13  1  0
  7 14  2  0
 10 15  1  0
 13 16  1  0
 13 17  1  0
 13 18  1  1
 15 19  1  0
 15 20  1  6
 21 16  1  0
 17 22  1  0
 17 23  1  1
 19 24  1  0
 19 25  1  6
 20 26  1  0
 21 27  1  6
 21 28  1  0
 29 24  1  6
 26 30  1  0
 26 31  2  0
 27 32  1  0
 29 33  1  0
 29 34  1  0
 30 35  1  0
 30 36  1  1
 32 37  1  0
 32 38  1  1
 33 39  1  0
 34 40  1  0
 35 41  2  0
 37 42  2  0
 37 43  1  0
 38 44  1  0
 39 45  1  0
 39 46  1  6
 41 47  1  0
 41 48  1  0
 42 49  1  0
 45 50  1  1
 47 51  1  0
 47 52  1  1
 49 53  2  0
 51 54  1  0
 51 55  1  6
 53 56  1  0
 54 57  1  0
 54 58  2  0
 55 59  1  0
 56 60  2  0
 57 61  1  0
 57 62  1  6
 60 63  1  0
 63 64  1  6
  9 12  1  0
 22 28  1  0
 40 45  1  0
 61 63  1  0
 50 65  1  0
 65 66  1  0
 66 67  1  0
 46 68  1  0
M  END
$$$$
