
     RDKit          2D

 18 19  0  0  0  0  0  0  0  0999 V2000
    2.8150   -1.0862    0.0000 N   0  0  0  0  0  0  0  0  0  0  0  0
    2.0808   -0.8042    0.0000 C   0  0  0  0  0  0  0  0  0  0  0  0
    2.0681    0.0205    0.0000 C   0  0  0  0  0  0  0  0  0  0  0  0
    2.8613    0.2481    0.0000 N   0  0  0  0  0  0  0  0  0  0  0  0
    3.3228   -0.4359    0.0000 C   0  0  0  0  0  0  0  0  0  0  0  0
    1.2699   -1.1917    0.0000 N   0  0  0  0  0  0  0  0  0  0  0  0
    0.6113   -0.7547    0.0000 C   0  0  0  0  0  0  0  0  0  0  0  0
    0.6399    0.0699    0.0000 N   0  0  0  0  0  0  0  0  0  0  0  0
    1.3683    0.4575    0.0000 C   0  0  0  0  0  0  0  0  0  0  0  0
    1.3553    1.2726    0.0000 O   0  0  0  0  0  0  0  0  0  0  0  0
   -0.1230   -1.1451    0.0000 N   0  0  0  0  0  0  0  0  0  0  0  0
    2.8150   -1.9111    0.0000 C   0  0  0  0  0  0  0  0  0  0  0  0
    3.5216   -2.3189    0.0000 O   0  0  0  0  0  0  0  0  0  0  0  0
    4.2368   -1.9058    0.0000 C   0  0  0  0  0  0  0  0  0  0  0  0
    4.9311   -2.3065    0.0000 C   0  0  0  0  0  0  0  0  0  0  0  0
    4.2370   -1.0692    0.0000 C   0  0  0  0  0  0  0  0  0  0  0  0
    4.9364   -0.6655    0.0000 O   0  0  0  0  0  0  0  0  0  0  0  0
    5.6356   -1.8995    0.0000 O   0  0  0  0  0  0  0  0  0  0  0  0
  1  2  1  0
  2  3  2  0
  3  4  1  0
  4  5  2  0
  1  5  1  0
  2  6  1  0
  6  7  2  0
  7  8  1  0
  8  9  1  0
  3  9  1  0
  9 10  2  0
  7 11  1  0
  1 12  1  0
 12 13  1  0
 13 14  1  0
 14 15  1  0
 14 16  1  0
 16 17  1  0
 15 18  1  0
M  END
$$$$
