1043
     RDKit          2D

 13 15  0  0  1  0  0  0  0  0999 V2000
    2.5024   -1.4994    0.0000 N   0  0  0  0  0  0  0  0  0  0  0  0
    3.0826    0.9204    0.0000 C   0  0  0  0  0  0  0  0  0  0  0  0
    2.3807   -0.2951    0.0000 C   0  0  0  0  0  0  0  0  0  0  0  0
    2.5025   -0.6602    0.0000 C   0  0  0  0  0  0  0  0  0  0  0  0
    3.7843   -0.2951    0.0000 C   0  0  0  0  0  0  0  0  0  0  0  0
    2.3807    0.5153    0.0000 C   0  0  0  0  0  0  0  0  0  0  0  0
    2.5025    0.2170    0.0000 C   0  0  0  0  0  0  0  0  0  0  0  0
    1.6785   -0.7003    0.0000 C   0  0  0  0  0  0  0  0  0  0  0  0
    3.7843    0.5153    0.0000 C   0  0  0  0  0  0  0  0  0  0  0  0
    3.0826   -0.5492    0.0000 C   0  0  0  0  0  0  0  0  0  0  0  0
    3.2626   -1.0604    0.0000 C   0  0  0  0  0  0  0  0  0  0  0  0
    3.0826    1.7596    0.0000 C   0  0  0  0  0  0  0  0  0  0  0  0
    1.7873    0.2983    0.0000 C   0  0  0  0  0  0  0  0  0  0  0  0
  1  4  1  0
  2  6  1  0
  2  7  1  0
  2  9  1  0
  2 12  1  0
  3  6  1  0
  3  8  1  0
  3 10  1  0
  3 13  1  0
  4  7  1  0
  4  8  1  0
  4 11  1  0
  5  9  1  0
  5 10  1  0
  5 11  1  0
M  END
$$$$
