1104
     RDKit          2D

 20 22  0  0  1  0  0  0  0  0999 V2000
    1.6498   -2.2685    0.0000 Cl  0  0  0  0  0  0  0  0  0  0  0  0
    3.0786   -3.0934    0.0000 Cl  0  0  0  0  0  0  0  0  0  0  0  0
    3.0786    2.6809    0.0000 N   0  0  0  0  0  0  0  0  0  0  0  0
    3.0786    0.2063    0.0000 C   0  0  0  0  0  0  0  0  0  0  0  0
    2.3641    0.6187    0.0000 C   0  0  0  0  0  0  0  0  0  0  0  0
    3.0786    1.8561    0.0000 C   0  0  0  0  0  0  0  0  0  0  0  0
    2.3641    1.4436    0.0000 C   0  0  0  0  0  0  0  0  0  0  0  0
    3.7929    0.6187    0.0000 C   0  0  0  0  0  0  0  0  0  0  0  0
    3.7929    1.4436    0.0000 C   0  0  0  0  0  0  0  0  0  0  0  0
    3.0786   -0.6187    0.0000 C   0  0  0  0  0  0  0  0  0  0  0  0
    4.5304    0.1776    0.0000 C   0  0  0  0  0  0  0  0  0  0  0  0
    4.5304    1.8847    0.0000 C   0  0  0  0  0  0  0  0  0  0  0  0
    2.3641   -1.0312    0.0000 C   0  0  0  0  0  0  0  0  0  0  0  0
    3.7929   -1.0312    0.0000 C   0  0  0  0  0  0  0  0  0  0  0  0
    5.2778    0.6015    0.0000 C   0  0  0  0  0  0  0  0  0  0  0  0
    5.2778    1.4607    0.0000 C   0  0  0  0  0  0  0  0  0  0  0  0
    2.3641    3.0934    0.0000 C   0  0  0  0  0  0  0  0  0  0  0  0
    2.3641   -1.8561    0.0000 C   0  0  0  0  0  0  0  0  0  0  0  0
    3.7929   -1.8561    0.0000 C   0  0  0  0  0  0  0  0  0  0  0  0
    3.0786   -2.2685    0.0000 C   0  0  0  0  0  0  0  0  0  0  0  0
  1 18  1  0
  2 20  1  0
  6  3  1  6
  3 17  1  0
  4  5  1  0
  4  8  1  0
  4 10  1  6
  5  7  1  0
  6  7  1  0
  6  9  1  0
  8  9  2  0
  8 11  1  0
  9 12  1  0
 10 13  2  0
 10 14  1  0
 11 15  2  0
 12 16  2  0
 13 18  1  0
 14 19  2  0
 15 16  1  0
 18 20  2  0
 19 20  1  0
M  END
$$$$
