1137
     RDKit          2D

 26 29  0  0  1  0  0  0  0  0999 V2000
    5.2224    2.1733    0.0000 F   0  0  0  0  0  0  0  0  0  0  0  0
    3.7572   -0.3074    0.0000 O   0  0  0  0  0  0  0  0  0  0  0  0
    7.3574    0.1203    0.0000 O   0  0  0  0  0  0  0  0  0  0  0  0
    7.3958   -2.3388    0.0000 O   0  0  0  0  0  0  0  0  0  0  0  0
    8.0858   -1.0875    0.0000 O   0  0  0  0  0  0  0  0  0  0  0  0
    3.7935    1.3482    0.0000 N   0  0  0  0  0  0  0  0  0  0  0  0
    5.2357   -1.1610    0.0000 N   0  0  0  0  0  0  0  0  0  0  0  0
    2.3645    2.1733    0.0000 N   0  0  0  0  0  0  0  0  0  0  0  0
    3.7935    2.1733    0.0000 C   0  0  0  0  0  0  0  0  0  0  0  0
    3.0791    0.9357    0.0000 C   0  0  0  0  0  0  0  0  0  0  0  0
    4.4948   -1.5965    0.0000 C   0  0  0  0  0  0  0  0  0  0  0  0
    4.5080    0.9357    0.0000 C   0  0  0  0  0  0  0  0  0  0  0  0
    5.2224   -0.3018    0.0000 C   0  0  0  0  0  0  0  0  0  0  0  0
    4.5080    0.1107    0.0000 C   0  0  0  0  0  0  0  0  0  0  0  0
    3.0791    2.5858    0.0000 C   0  0  0  0  0  0  0  0  0  0  0  0
    2.3645    1.3482    0.0000 C   0  0  0  0  0  0  0  0  0  0  0  0
    3.7506   -1.1667    0.0000 C   0  0  0  0  0  0  0  0  0  0  0  0
    5.9370    0.1107    0.0000 C   0  0  0  0  0  0  0  0  0  0  0  0
    5.2224    1.3482    0.0000 C   0  0  0  0  0  0  0  0  0  0  0  0
    5.9594   -1.5429    0.0000 C   0  0  0  0  0  0  0  0  0  0  0  0
    5.9370    0.9357    0.0000 C   0  0  0  0  0  0  0  0  0  0  0  0
    4.4980   -2.4214    0.0000 C   0  0  0  0  0  0  0  0  0  0  0  0
    6.6460   -0.2975    0.0000 C   0  0  0  0  0  0  0  0  0  0  0  0
    1.6500    2.5858    0.0000 C   0  0  0  0  0  0  0  0  0  0  0  0
    6.6571   -1.1156    0.0000 C   0  0  0  0  0  0  0  0  0  0  0  0
    7.3796   -1.5139    0.0000 C   0  0  0  0  0  0  0  0  0  0  0  0
  1 19  1  0
  2 14  1  0
  2 17  1  0
  3 23  2  0
  4 26  1  0
  5 26  2  0
  6  9  1  0
  6 10  1  0
  6 12  1  0
  7 11  1  0
  7 13  1  0
  7 20  1  0
  8 15  1  0
  8 16  1  0
  8 24  1  0
  9 15  1  0
 10 16  1  0
 11 17  1  0
 11 22  1  1
 12 14  1  0
 12 19  2  0
 13 14  2  0
 13 18  1  0
 18 21  2  0
 18 23  1  0
 19 21  1  0
 20 25  2  0
 23 25  1  0
 25 26  1  0
M  END
$$$$
