1143
     RDKit          2D

 12 11  0  0  0  0  0  0  0  0999 V2000
    3.5220    0.1910    0.0000 S   0  0  0  0  0  0  0  0  0  0  0  0
    2.8075   -0.2215    0.0000 P   0  0  0  0  0  0  0  0  0  0  0  0
    2.0930   -0.6340    0.0000 O   0  0  0  0  0  0  0  0  0  0  0  0
    2.3950    0.4930    0.0000 O   0  0  0  0  0  0  0  0  0  0  0  0
    3.2200   -0.9360    0.0000 O   0  0  0  0  0  0  0  0  0  0  0  0
    5.6655   -0.2215    0.0000 N   0  0  0  0  0  0  0  0  0  0  0  0
    8.5234   -0.2215    0.0000 N   0  0  0  0  0  0  0  0  0  0  0  0
    6.3799    0.1910    0.0000 C   0  0  0  0  0  0  0  0  0  0  0  0
    7.0944   -0.2215    0.0000 C   0  0  0  0  0  0  0  0  0  0  0  0
    4.9509    0.1910    0.0000 C   0  0  0  0  0  0  0  0  0  0  0  0
    4.2365   -0.2215    0.0000 C   0  0  0  0  0  0  0  0  0  0  0  0
    7.8089    0.1910    0.0000 C   0  0  0  0  0  0  0  0  0  0  0  0
  1  2  1  0
  1 11  1  0
  2  3  1  0
  2  4  1  0
  2  5  2  0
  6  8  1  0
  6 10  1  0
  7 12  1  0
  8  9  1  0
  9 12  1  0
 10 11  1  0
M  END
$$$$
