 
     RDKit          2D

 15 15  0  0  0  0  0  0  0  0999 V2000
   14.9998   -9.5113    0.0000 C   0  0  0  0  0  0  0  0  0  0  0  0
   14.2821   -9.0959    0.0000 C   0  0  0  0  0  0  0  0  0  0  0  0
   14.9929  -10.3321    0.0000 C   0  0  0  0  0  0  0  0  0  0  0  0
   15.7106   -9.0925    0.0000 C   0  0  0  0  0  0  0  0  0  0  0  0
   13.5713   -9.5113    0.0000 C   0  0  0  0  0  0  0  0  0  0  0  0
   15.7106  -10.7442    0.0000 C   0  0  0  0  0  0  0  0  0  0  0  0
   14.2787  -10.7407    0.0000 Cl  0  0  0  0  0  0  0  0  0  0  0  0
   16.4248   -9.5045    0.0000 C   0  0  0  0  0  0  0  0  0  0  0  0
   15.7071   -8.2649    0.0000 Cl  0  0  0  0  0  0  0  0  0  0  0  0
   12.8571   -9.0959    0.0000 N   0  0  0  0  0  0  0  0  0  0  0  0
   13.5713  -10.3355    0.0000 O   0  0  0  0  0  0  0  0  0  0  0  0
   16.4248  -10.3321    0.0000 C   0  0  0  0  0  0  0  0  0  0  0  0
   12.1393   -9.5113    0.0000 C   0  0  0  0  0  0  0  0  0  0  0  0
   11.4251   -9.0959    0.0000 N   0  0  0  0  0  0  0  0  0  0  0  0
   12.1393  -10.3355    0.0000 N   0  0  0  0  0  0  0  0  0  0  0  0
  1  2  1  0
  1  3  2  0
  1  4  1  0
  2  5  1  0
  3  6  1  0
  3  7  1  0
  4  8  2  0
  4  9  1  0
  5 10  1  0
  5 11  2  0
  6 12  2  0
 10 13  1  0
 13 14  1  0
 13 15  2  3
  8 12  1  0
M  END
$$$$
