1100
     RDKit          2D

 34 38  0  0  0  0  0  0  0  0999 V2000
    7.7808    4.6060    0.0000 F   0  0  0  0  0  0  0  0  0  0  0  0
    8.9596   -0.9870    0.0000 F   0  0  0  0  0  0  0  0  0  0  0  0
    5.1661   -3.4559    0.0000 O   0  0  0  0  0  0  0  0  0  0  0  0
    4.6285   -0.4394    0.0000 N   0  0  0  0  0  0  0  0  0  0  0  0
    3.8596   -2.7920    0.0000 N   0  0  0  0  0  0  0  0  0  0  0  0
    3.8596   -4.1198    0.0000 N   0  0  0  0  0  0  0  0  0  0  0  0
    4.1159   -2.0077    0.0000 C   0  0  0  0  0  0  0  0  0  0  0  0
    4.9232   -1.8376    0.0000 C   0  0  0  0  0  0  0  0  0  0  0  0
    3.5649   -1.3937    0.0000 C   0  0  0  0  0  0  0  0  0  0  0  0
    5.1795   -1.0535    0.0000 C   0  0  0  0  0  0  0  0  0  0  0  0
    3.8213   -0.6095    0.0000 C   0  0  0  0  0  0  0  0  0  0  0  0
    4.8848    0.3448    0.0000 C   0  0  0  0  0  0  0  0  0  0  0  0
    5.6921    0.5149    0.0000 C   0  0  0  0  0  0  0  0  0  0  0  0
    3.0790   -3.0434    0.0000 C   0  0  0  0  0  0  0  0  0  0  0  0
    5.9484    1.2991    0.0000 C   0  0  0  0  0  0  0  0  0  0  0  0
    4.3411   -3.4559    0.0000 C   0  0  0  0  0  0  0  0  0  0  0  0
    6.7557    1.4693    0.0000 C   0  0  0  0  0  0  0  0  0  0  0  0
    3.0790   -3.8684    0.0000 C   0  0  0  0  0  0  0  0  0  0  0  0
    2.3645   -2.6309    0.0000 C   0  0  0  0  0  0  0  0  0  0  0  0
    7.0120    2.2534    0.0000 C   0  0  0  0  0  0  0  0  0  0  0  0
    7.3066    0.8552    0.0000 C   0  0  0  0  0  0  0  0  0  0  0  0
    2.3645   -4.2809    0.0000 C   0  0  0  0  0  0  0  0  0  0  0  0
    1.6500   -3.0434    0.0000 C   0  0  0  0  0  0  0  0  0  0  0  0
    1.6500   -3.8684    0.0000 C   0  0  0  0  0  0  0  0  0  0  0  0
    6.4610    2.8675    0.0000 C   0  0  0  0  0  0  0  0  0  0  0  0
    8.1139    1.0253    0.0000 C   0  0  0  0  0  0  0  0  0  0  0  0
    7.8193    2.4235    0.0000 C   0  0  0  0  0  0  0  0  0  0  0  0
    7.0504    0.0710    0.0000 C   0  0  0  0  0  0  0  0  0  0  0  0
    6.7173    3.6517    0.0000 C   0  0  0  0  0  0  0  0  0  0  0  0
    8.6649    0.4113    0.0000 C   0  0  0  0  0  0  0  0  0  0  0  0
    8.0755    3.2077    0.0000 C   0  0  0  0  0  0  0  0  0  0  0  0
    7.6013   -0.5431    0.0000 C   0  0  0  0  0  0  0  0  0  0  0  0
    7.5246    3.8218    0.0000 C   0  0  0  0  0  0  0  0  0  0  0  0
    8.4086   -0.3729    0.0000 C   0  0  0  0  0  0  0  0  0  0  0  0
  1 33  1  0
  2 34  1  0
  3 16  2  0
  4 10  1  0
  4 11  1  0
  4 12  1  0
  5  7  1  0
  5 14  1  0
  5 16  1  0
  6 16  1  0
  6 18  1  0
  7  8  1  0
  7  9  1  0
  8 10  1  0
  9 11  1  0
 12 13  1  0
 13 15  1  0
 14 18  2  0
 14 19  1  0
 15 17  1  0
 17 20  1  0
 17 21  1  0
 18 22  1  0
 19 23  2  0
 20 25  2  0
 20 27  1  0
 21 26  2  0
 21 28  1  0
 22 24  2  0
 23 24  1  0
 25 29  1  0
 26 30  1  0
 27 31  2  0
 28 32  2  0
 29 33  2  0
 30 34  2  0
 31 33  1  0
 32 34  1  0
M  END
$$$$
