1035
     RDKit          2D

 17 17  0  0  0  0  0  0  0  0999 V2000
    1.6500    0.3341    0.0000 O   0  0  0  0  0  0  0  0  0  0  0  0
    3.7935    2.3967    0.0000 N   0  0  0  0  0  0  0  0  0  0  0  0
    3.0791    0.3341    0.0000 N   0  0  0  0  0  0  0  0  0  0  0  0
    2.3645   -3.3784    0.0000 N   0  0  0  0  0  0  0  0  0  0  0  0
    3.7935    1.5717    0.0000 C   0  0  0  0  0  0  0  0  0  0  0  0
    4.5080    2.8092    0.0000 C   0  0  0  0  0  0  0  0  0  0  0  0
    3.0791    2.8092    0.0000 C   0  0  0  0  0  0  0  0  0  0  0  0
    3.0791    1.1592    0.0000 C   0  0  0  0  0  0  0  0  0  0  0  0
    4.5080    3.6342    0.0000 C   0  0  0  0  0  0  0  0  0  0  0  0
    3.0791    3.6342    0.0000 C   0  0  0  0  0  0  0  0  0  0  0  0
    2.3645   -0.0784    0.0000 C   0  0  0  0  0  0  0  0  0  0  0  0
    2.3645   -0.9034    0.0000 C   0  0  0  0  0  0  0  0  0  0  0  0
    3.0791   -1.3159    0.0000 C   0  0  0  0  0  0  0  0  0  0  0  0
    1.6500   -1.3159    0.0000 C   0  0  0  0  0  0  0  0  0  0  0  0
    3.0791   -2.1409    0.0000 C   0  0  0  0  0  0  0  0  0  0  0  0
    1.6500   -2.1409    0.0000 C   0  0  0  0  0  0  0  0  0  0  0  0
    2.3645   -2.5534    0.0000 C   0  0  0  0  0  0  0  0  0  0  0  0
  1 11  2  0
  2  5  1  0
  2  6  1  0
  2  7  1  0
  3  8  1  0
  3 11  1  0
  4 17  1  0
  5  8  1  0
  6  9  1  0
  7 10  1  0
 11 12  1  0
 12 13  2  0
 12 14  1  0
 13 15  1  0
 14 16  2  0
 15 17  2  0
 16 17  1  0
M  END
$$$$
