1068
     RDKit          2D

 22 24  0  0  0  0  0  0  0  0999 V2000
    3.6081   -1.2313    0.0000 Cl  0  0  0  0  0  0  0  0  0  0  0  0
    2.3403    2.5929    0.0000 O   0  0  0  0  0  0  0  0  0  0  0  0
    1.8668   -2.5929    0.0000 O   0  0  0  0  0  0  0  0  0  0  0  0
    3.2913   -2.4806    0.0000 O   0  0  0  0  0  0  0  0  0  0  0  0
    2.1839    1.2046    0.0000 N   0  0  0  0  0  0  0  0  0  0  0  0
    4.0375    1.2046    0.0000 N   0  0  0  0  0  0  0  0  0  0  0  0
    2.5467   -2.1255    0.0000 N   0  0  0  0  0  0  0  0  0  0  0  0
    3.1107    0.0423    0.0000 C   0  0  0  0  0  0  0  0  0  0  0  0
    2.3674    0.4003    0.0000 C   0  0  0  0  0  0  0  0  0  0  0  0
    3.8540    0.4003    0.0000 C   0  0  0  0  0  0  0  0  0  0  0  0
    4.4990   -0.1141    0.0000 C   0  0  0  0  0  0  0  0  0  0  0  0
    3.1881   -0.8135    0.0000 C   0  0  0  0  0  0  0  0  0  0  0  0
    1.6500   -0.0728    0.0000 C   0  0  0  0  0  0  0  0  0  0  0  0
    3.5232    1.8496    0.0000 C   0  0  0  0  0  0  0  0  0  0  0  0
    2.4818   -1.3031    0.0000 C   0  0  0  0  0  0  0  0  0  0  0  0
    2.6982    1.8496    0.0000 C   0  0  0  0  0  0  0  0  0  0  0  0
    1.7076   -0.9302    0.0000 C   0  0  0  0  0  0  0  0  0  0  0  0
    4.3760   -0.9299    0.0000 C   0  0  0  0  0  0  0  0  0  0  0  0
    5.2670    0.1873    0.0000 C   0  0  0  0  0  0  0  0  0  0  0  0
    5.0210   -1.4442    0.0000 C   0  0  0  0  0  0  0  0  0  0  0  0
    5.9120   -0.3271    0.0000 C   0  0  0  0  0  0  0  0  0  0  0  0
    5.7890   -1.1429    0.0000 C   0  0  0  0  0  0  0  0  0  0  0  0
  1 18  1  0
  2 16  2  0
  3  7  1  0
  4  7  2  0
  5  9  1  0
  5 16  1  0
  6 10  2  0
  6 14  1  0
  7 15  1  0
  8  9  2  0
  8 10  1  0
  8 12  1  0
  9 13  1  0
 10 11  1  0
 11 18  2  0
 11 19  1  0
 12 15  2  0
 13 17  2  0
 14 16  1  0
 15 17  1  0
 18 20  1  0
 19 21  2  0
 20 22  2  0
 21 22  1  0
M  CHG  2   3  -1   7   1
M  END
$$$$
