1185
     RDKit          2D

 24 27  0  0  1  0  0  0  0  0999 V2000
    4.1396    0.5667    0.0000 F   0  0  0  0  0  0  0  0  0  0  0  0
    7.5474    1.4947    0.0000 O   0  0  0  0  0  0  0  0  0  0  0  0
    3.9555    1.1722    0.0000 O   0  0  0  0  0  0  0  0  0  0  0  0
    1.6498   -1.7582    0.0000 O   0  0  0  0  0  0  0  0  0  0  0  0
    6.0987    0.7597    0.0000 C   0  0  0  0  0  0  0  0  0  0  0  0
    6.0987   -0.0653    0.0000 C   0  0  0  0  0  0  0  0  0  0  0  0
    5.3843   -0.4777    0.0000 C   0  0  0  0  0  0  0  0  0  0  0  0
    4.6698   -0.0653    0.0000 C   0  0  0  0  0  0  0  0  0  0  0  0
    6.8793    1.0111    0.0000 C   0  0  0  0  0  0  0  0  0  0  0  0
    5.3843    1.1722    0.0000 C   0  0  0  0  0  0  0  0  0  0  0  0
    3.9192   -0.4833    0.0000 C   0  0  0  0  0  0  0  0  0  0  0  0
    4.6698    0.7597    0.0000 C   0  0  0  0  0  0  0  0  0  0  0  0
    6.8793   -0.3166    0.0000 C   0  0  0  0  0  0  0  0  0  0  0  0
    7.3607    0.3473    0.0000 C   0  0  0  0  0  0  0  0  0  0  0  0
    5.3975   -1.3368    0.0000 C   0  0  0  0  0  0  0  0  0  0  0  0
    6.0987    1.5846    0.0000 C   0  0  0  0  0  0  0  0  0  0  0  0
    3.9126   -1.3425    0.0000 C   0  0  0  0  0  0  0  0  0  0  0  0
    4.6567   -1.7722    0.0000 C   0  0  0  0  0  0  0  0  0  0  0  0
    3.1546   -0.0180    0.0000 C   0  0  0  0  0  0  0  0  0  0  0  0
    6.6257    1.7960    0.0000 C   0  0  0  0  0  0  0  0  0  0  0  0
    3.6431    0.2940    0.0000 C   0  0  0  0  0  0  0  0  0  0  0  0
    2.3727   -0.4535    0.0000 C   0  0  0  0  0  0  0  0  0  0  0  0
    3.1409   -1.7960    0.0000 C   0  0  0  0  0  0  0  0  0  0  0  0
    2.3658   -1.3485    0.0000 C   0  0  0  0  0  0  0  0  0  0  0  0
  8  1  1  6
  9  2  1  0
 12  3  1  1
  4 24  2  0
  5  6  1  0
  5  9  1  0
  5 10  1  0
  5 16  1  1
  6  7  1  0
  6 13  1  1
  7  8  1  0
  7 15  1  6
  8 11  1  0
  8 12  1  0
  9 14  1  0
  9 20  1  6
 10 12  1  0
 11 17  1  0
 11 19  1  0
 11 21  1  1
 13 14  1  0
 15 18  1  0
 17 18  1  0
 17 23  2  0
 19 22  1  0
 22 24  1  0
 23 24  1  0
M  END
$$$$
