1096
     RDKit          2D

 20 21  0  0  1  0  0  0  0  0999 V2000
    2.3645    1.5348    0.0000 O   0  0  0  0  0  0  0  0  0  0  0  0
    2.3645   -1.7652    0.0000 O   0  0  0  0  0  0  0  0  0  0  0  0
    1.6500   -0.5277    0.0000 O   0  0  0  0  0  0  0  0  0  0  0  0
    5.2454   -0.9688    0.0000 N   0  0  0  0  0  0  0  0  0  0  0  0
    7.4219   -0.5504    0.0000 N   0  0  0  0  0  0  0  0  0  0  0  0
    2.3645   -0.9402    0.0000 N   0  0  0  0  0  0  0  0  0  0  0  0
    5.9929   -0.5448    0.0000 C   0  0  0  0  0  0  0  0  0  0  0  0
    5.9929    0.3145    0.0000 C   0  0  0  0  0  0  0  0  0  0  0  0
    5.2454    0.7385    0.0000 C   0  0  0  0  0  0  0  0  0  0  0  0
    6.7058   -0.9601    0.0000 C   0  0  0  0  0  0  0  0  0  0  0  0
    4.5079    0.2973    0.0000 C   0  0  0  0  0  0  0  0  0  0  0  0
    4.5079   -0.5277    0.0000 C   0  0  0  0  0  0  0  0  0  0  0  0
    3.7935    0.7098    0.0000 C   0  0  0  0  0  0  0  0  0  0  0  0
    8.1347   -0.9656    0.0000 C   0  0  0  0  0  0  0  0  0  0  0  0
    3.7935   -0.9402    0.0000 C   0  0  0  0  0  0  0  0  0  0  0  0
    3.0790    0.2973    0.0000 C   0  0  0  0  0  0  0  0  0  0  0  0
    3.0790   -0.5277    0.0000 C   0  0  0  0  0  0  0  0  0  0  0  0
    8.8509   -0.5559    0.0000 C   0  0  0  0  0  0  0  0  0  0  0  0
    8.1316   -1.7906    0.0000 C   0  0  0  0  0  0  0  0  0  0  0  0
    2.3645    0.7098    0.0000 C   0  0  0  0  0  0  0  0  0  0  0  0
  1 20  1  0
  2  6  1  0
  3  6  2  0
  4  7  1  0
  4 12  1  0
  5 10  1  0
  5 14  1  0
  6 17  1  0
  7  8  1  0
  7 10  1  0
  8  9  1  0
  9 11  1  0
 11 12  2  0
 11 13  1  0
 12 15  1  0
 13 16  2  0
 14 18  1  0
 14 19  1  0
 15 17  2  0
 16 17  1  0
 16 20  1  0
M  CHG  2   2  -1   6   1
M  END
$$$$
