1090
     RDKit          2D

 17 18  0  0  0  0  0  0  0  0999 V2000
    6.7861    0.6406    0.0000 N   0  0  0  0  0  0  0  0  0  0  0  0
    2.8696   -1.1032    0.0000 N   0  0  0  0  0  0  0  0  0  0  0  0
    6.1186    1.1255    0.0000 C   0  0  0  0  0  0  0  0  0  0  0  0
    7.4535    1.1255    0.0000 C   0  0  0  0  0  0  0  0  0  0  0  0
    2.0626   -1.2747    0.0000 C   0  0  0  0  0  0  0  0  0  0  0  0
    2.9559   -0.2827    0.0000 C   0  0  0  0  0  0  0  0  0  0  0  0
    6.3011   -0.0269    0.0000 C   0  0  0  0  0  0  0  0  0  0  0  0
    3.6902   -1.1894    0.0000 C   0  0  0  0  0  0  0  0  0  0  0  0
    6.3736    1.9101    0.0000 C   0  0  0  0  0  0  0  0  0  0  0  0
    7.1986    1.9101    0.0000 C   0  0  0  0  0  0  0  0  0  0  0  0
    1.6501   -0.5602    0.0000 C   0  0  0  0  0  0  0  0  0  0  0  0
    2.2021    0.0530    0.0000 C   0  0  0  0  0  0  0  0  0  0  0  0
    5.4806    0.0593    0.0000 C   0  0  0  0  0  0  0  0  0  0  0  0
    4.1751   -0.5219    0.0000 C   0  0  0  0  0  0  0  0  0  0  0  0
    4.9956   -0.6081    0.0000 C   0  0  0  0  0  0  0  0  0  0  0  0
    7.2710   -0.0269    0.0000 C   0  0  0  0  0  0  0  0  0  0  0  0
    3.0412   -1.9101    0.0000 C   0  0  0  0  0  0  0  0  0  0  0  0
  1  3  1  0
  1  4  1  0
  1  7  1  0
  1 16  1  0
  2  5  1  0
  2  6  1  0
  2  8  1  0
  2 17  1  0
  3  9  1  0
  4 10  1  0
  5 11  1  0
  6 12  1  0
  7 13  1  0
  8 14  1  0
  9 10  1  0
 11 12  1  0
 13 15  1  0
 14 15  1  0
M  CHG  2   1   1   2   1
M  END
$$$$
