1034
     RDKit          2D

 16 16  0  0  1  0  0  0  0  0999 V2000
    3.9345    0.9760    0.0000 O   0  0  0  0  0  0  0  0  0  0  0  0
    5.0615   -0.9760    0.0000 O   0  0  0  0  0  0  0  0  0  0  0  0
    2.8075   -0.9760    0.0000 O   0  0  0  0  0  0  0  0  0  0  0  0
    2.0930    0.2615    0.0000 N   0  0  0  0  0  0  0  0  0  0  0  0
    4.3470    0.2615    0.0000 C   0  0  0  0  0  0  0  0  0  0  0  0
    3.5220    0.2615    0.0000 C   0  0  0  0  0  0  0  0  0  0  0  0
    5.0615   -0.1510    0.0000 C   0  0  0  0  0  0  0  0  0  0  0  0
    5.7760    0.2615    0.0000 C   0  0  0  0  0  0  0  0  0  0  0  0
    2.8075   -0.1510    0.0000 C   0  0  0  0  0  0  0  0  0  0  0  0
    6.4905   -0.1510    0.0000 C   0  0  0  0  0  0  0  0  0  0  0  0
    7.2050    0.2615    0.0000 C   0  0  0  0  0  0  0  0  0  0  0  0
    7.9194   -0.1510    0.0000 C   0  0  0  0  0  0  0  0  0  0  0  0
    8.6339    0.2615    0.0000 C   0  0  0  0  0  0  0  0  0  0  0  0
    9.3484   -0.1510    0.0000 C   0  0  0  0  0  0  0  0  0  0  0  0
   10.0629    0.2615    0.0000 C   0  0  0  0  0  0  0  0  0  0  0  0
   10.7774   -0.1510    0.0000 C   0  0  0  0  0  0  0  0  0  0  0  0
  1  5  1  0
  1  6  1  0
  2  7  2  0
  3  9  2  0
  4  9  1  0
  5  6  1  0
  5  7  1  6
  6  9  1  6
  7  8  1  0
  8 10  1  0
 10 11  1  0
 11 12  2  3
 12 13  1  0
 13 14  1  0
 14 15  2  3
 15 16  1  0
M  END
$$$$
