1057
     RDKit          2D

 15 14  0  0  0  0  0  0  0  0999 V2000
    3.3008    1.5700    0.0000 S   0  0  0  0  0  0  0  0  0  0  0  0
    2.5863    1.1574    0.0000 P   0  0  0  0  0  0  0  0  0  0  0  0
    1.8719    0.7450    0.0000 O   0  0  0  0  0  0  0  0  0  0  0  0
    2.1739    1.8719    0.0000 O   0  0  0  0  0  0  0  0  0  0  0  0
    2.9989    0.4429    0.0000 O   0  0  0  0  0  0  0  0  0  0  0  0
    5.4442    1.1574    0.0000 N   0  0  0  0  0  0  0  0  0  0  0  0
    4.7298    1.5700    0.0000 C   0  0  0  0  0  0  0  0  0  0  0  0
    6.1586    0.7450    0.0000 C   0  0  0  0  0  0  0  0  0  0  0  0
    5.8567    1.8719    0.0000 C   0  0  0  0  0  0  0  0  0  0  0  0
    5.0318    0.4429    0.0000 C   0  0  0  0  0  0  0  0  0  0  0  0
    4.0153    1.1574    0.0000 C   0  0  0  0  0  0  0  0  0  0  0  0
    1.1574    1.1574    0.0000 C   0  0  0  0  0  0  0  0  0  0  0  0
    2.5863    2.5863    0.0000 C   0  0  0  0  0  0  0  0  0  0  0  0
    0.4429    0.7450    0.0000 C   0  0  0  0  0  0  0  0  0  0  0  0
    2.1739    3.3008    0.0000 C   0  0  0  0  0  0  0  0  0  0  0  0
  1  2  1  0
  1 11  1  0
  2  3  1  0
  2  4  1  0
  2  5  2  0
  3 12  1  0
  4 13  1  0
  6  7  1  0
  6  8  1  0
  6  9  1  0
  6 10  1  0
  7 11  1  0
 12 14  1  0
 13 15  1  0
M  CHG  1   6   1
M  END
$$$$
