
     RDKit          2D

 20 21  0  0  0  0  0  0  0  0999 V2000
   -0.4017   -0.6035    0.0000 C   0  0  0  0  0  0  0  0  0  0  0  0
   -1.1162   -1.0160    0.0000 C   0  0  0  0  0  0  0  0  0  0  0  0
   -1.1162   -1.8410    0.0000 C   0  0  0  0  0  0  0  0  0  0  0  0
   -0.4017   -2.2535    0.0000 C   0  0  0  0  0  0  0  0  0  0  0  0
    0.3126   -1.8410    0.0000 C   0  0  0  0  0  0  0  0  0  0  0  0
    0.3126   -1.0160    0.0000 C   0  0  0  0  0  0  0  0  0  0  0  0
   -0.4017    0.2214    0.0000 N   0  0  0  0  0  0  0  0  0  0  0  0
    1.0271   -0.6035    0.0000 Cl  0  0  0  0  0  0  0  0  0  0  0  0
   -1.8307   -0.6035    0.0000 F   0  0  0  0  0  0  0  0  0  0  0  0
   -1.1162    0.6339    0.0000 C   0  0  0  0  0  0  0  0  0  0  0  0
   -1.8307    0.2214    0.0000 C   0  0  0  0  0  0  0  0  0  0  0  0
   -1.1162    1.4589    0.0000 C   0  0  0  0  0  0  0  0  0  0  0  0
   -1.8307    1.8714    0.0000 C   0  0  0  0  0  0  0  0  0  0  0  0
   -2.5452    1.4589    0.0000 C   0  0  0  0  0  0  0  0  0  0  0  0
   -2.5452    0.6339    0.0000 C   0  0  0  0  0  0  0  0  0  0  0  0
   -3.2597    1.8714    0.0000 C   0  0  0  0  0  0  0  0  0  0  0  0
   -0.4018    1.8714    0.0000 C   0  0  0  0  0  0  0  0  0  0  0  0
   -0.4018    2.6964    0.0000 C   0  0  0  0  0  0  0  0  0  0  0  0
   -1.1163    3.1089    0.0000 O   0  0  0  0  0  0  0  0  0  0  0  0
    0.3126    3.1089    0.0000 O   0  0  0  0  0  0  0  0  0  0  0  0
  1  2  2  0
  1  6  1  0
  2  3  1  0
  3  4  2  0
  4  5  1  0
  5  6  2  0
  1  7  1  0
  6  8  1  0
  2  9  1  0
  7 10  1  0
 10 11  2  0
 12 13  2  0
 13 14  1  0
 14 15  2  0
 10 12  1  0
 15 11  1  0
 14 16  1  0
 12 17  1  0
 17 18  1  0
 18 19  2  0
 18 20  1  0
M  END
$$$$
