1054
     RDKit          2D

 26 27  0  0  1  0  0  0  0  0999 V2000
    3.0791   -0.9818    0.0000 O   0  0  0  0  0  0  0  0  0  0  0  0
    7.3659   -0.9818    0.0000 O   0  0  0  0  0  0  0  0  0  0  0  0
    3.7935    0.2558    0.0000 O   0  0  0  0  0  0  0  0  0  0  0  0
    6.6515    0.2558    0.0000 O   0  0  0  0  0  0  0  0  0  0  0  0
    6.6515    2.7308    0.0000 O   0  0  0  0  0  0  0  0  0  0  0  0
    7.3659    1.4933    0.0000 O   0  0  0  0  0  0  0  0  0  0  0  0
    5.2224   -2.2193    0.0000 N   0  0  0  0  0  0  0  0  0  0  0  0
    6.6515    1.9058    0.0000 N   0  0  0  0  0  0  0  0  0  0  0  0
    5.2224   -0.5693    0.0000 C   0  0  0  0  0  0  0  0  0  0  0  0
    4.5080   -0.9818    0.0000 C   0  0  0  0  0  0  0  0  0  0  0  0
    5.9370   -0.9818    0.0000 C   0  0  0  0  0  0  0  0  0  0  0  0
    5.2224    0.2558    0.0000 C   0  0  0  0  0  0  0  0  0  0  0  0
    4.5080   -1.8068    0.0000 C   0  0  0  0  0  0  0  0  0  0  0  0
    5.9370   -1.8068    0.0000 C   0  0  0  0  0  0  0  0  0  0  0  0
    5.9370    0.6683    0.0000 C   0  0  0  0  0  0  0  0  0  0  0  0
    3.7935   -0.5693    0.0000 C   0  0  0  0  0  0  0  0  0  0  0  0
    4.5080    0.6683    0.0000 C   0  0  0  0  0  0  0  0  0  0  0  0
    3.7935   -2.2193    0.0000 C   0  0  0  0  0  0  0  0  0  0  0  0
    6.6515   -2.2193    0.0000 C   0  0  0  0  0  0  0  0  0  0  0  0
    6.6515   -0.5693    0.0000 C   0  0  0  0  0  0  0  0  0  0  0  0
    5.9370    1.4933    0.0000 C   0  0  0  0  0  0  0  0  0  0  0  0
    4.5080    1.4933    0.0000 C   0  0  0  0  0  0  0  0  0  0  0  0
    5.2224    1.9058    0.0000 C   0  0  0  0  0  0  0  0  0  0  0  0
    2.3645   -0.5693    0.0000 C   0  0  0  0  0  0  0  0  0  0  0  0
    8.0804   -0.5693    0.0000 C   0  0  0  0  0  0  0  0  0  0  0  0
    1.6500   -0.9818    0.0000 C   0  0  0  0  0  0  0  0  0  0  0  0
  1 16  1  0
  1 24  1  0
  2 20  1  0
  2 25  1  0
  3 16  2  0
  4 20  2  0
  5  8  1  0
  6  8  2  0
  7 13  1  0
  7 14  1  0
  8 21  1  0
  9 10  1  0
  9 11  1  0
  9 12  1  0
 10 13  2  0
 10 16  1  0
 11 14  2  0
 11 20  1  0
 12 15  2  0
 12 17  1  0
 13 18  1  0
 14 19  1  0
 15 21  1  0
 17 22  2  0
 21 23  2  0
 22 23  1  0
 24 26  1  0
M  CHG  2   5  -1   8   1
M  END
$$$$
