1056
     RDKit          2D

 14 14  0  0  1  0  0  0  0  0999 V2000
    4.5080    0.1568    0.0000 O   0  0  0  0  0  0  0  0  0  0  0  0
    3.0791    0.1568    0.0000 N   0  0  0  0  0  0  0  0  0  0  0  0
    4.5080    1.8068    0.0000 N   0  0  0  0  0  0  0  0  0  0  0  0
    3.0791   -0.6683    0.0000 C   0  0  0  0  0  0  0  0  0  0  0  0
    3.7935   -1.0808    0.0000 C   0  0  0  0  0  0  0  0  0  0  0  0
    2.3645   -1.0808    0.0000 C   0  0  0  0  0  0  0  0  0  0  0  0
    3.7935    1.3943    0.0000 C   0  0  0  0  0  0  0  0  0  0  0  0
    3.7935    0.5693    0.0000 C   0  0  0  0  0  0  0  0  0  0  0  0
    3.7935   -1.9058    0.0000 C   0  0  0  0  0  0  0  0  0  0  0  0
    2.3645   -1.9058    0.0000 C   0  0  0  0  0  0  0  0  0  0  0  0
    4.5080   -0.6683    0.0000 C   0  0  0  0  0  0  0  0  0  0  0  0
    1.6500   -0.6683    0.0000 C   0  0  0  0  0  0  0  0  0  0  0  0
    3.0791   -2.3183    0.0000 C   0  0  0  0  0  0  0  0  0  0  0  0
    3.0791    1.8068    0.0000 C   0  0  0  0  0  0  0  0  0  0  0  0
  1  8  2  0
  2  4  1  0
  2  8  1  0
  3  7  1  0
  4  5  2  0
  4  6  1  0
  5  9  1  0
  5 11  1  0
  6 10  2  0
  6 12  1  0
  7  8  1  0
  7 14  1  0
  9 13  2  0
 10 13  1  0
M  END
$$$$
