1273
     RDKit          2D

 16 19  0  0  1  0  0  0  0  0999 V2000
    7.5417    0.0362    0.0000 N   0  0  0  0  0  0  0  0  0  0  0  0
    2.7584   -1.8273    0.0000 N   0  0  0  0  0  0  0  0  0  0  0  0
    1.9389   -0.4079    0.0000 N   0  0  0  0  0  0  0  0  0  0  0  0
    5.6545    0.3520    0.0000 C   0  0  0  0  0  0  0  0  0  0  0  0
    5.8513    1.0865    0.0000 C   0  0  0  0  0  0  0  0  0  0  0  0
    5.2911    1.8337    0.0000 C   0  0  0  0  0  0  0  0  0  0  0  0
    4.3374   -0.4085    0.0000 C   0  0  0  0  0  0  0  0  0  0  0  0
    3.9572    0.2501    0.0000 C   0  0  0  0  0  0  0  0  0  0  0  0
    6.9508   -0.4425    0.0000 C   0  0  0  0  0  0  0  0  0  0  0  0
    7.2692    0.7461    0.0000 C   0  0  0  0  0  0  0  0  0  0  0  0
    3.9519   -1.1004    0.0000 C   0  0  0  0  0  0  0  0  0  0  0  0
    3.1652    0.2623    0.0000 C   0  0  0  0  0  0  0  0  0  0  0  0
    3.1599   -1.1066    0.0000 C   0  0  0  0  0  0  0  0  0  0  0  0
    2.7638   -0.4206    0.0000 C   0  0  0  0  0  0  0  0  0  0  0  0
    1.9333   -1.8337    0.0000 C   0  0  0  0  0  0  0  0  0  0  0  0
    1.5208   -1.1192    0.0000 C   0  0  0  0  0  0  0  0  0  0  0  0
  1  9  1  0
  1 10  1  0
  2 13  1  0
  2 15  2  0
  3 14  1  0
  3 16  2  0
  4  6  1  0
  4  7  1  0
  4  9  1  6
  5  6  1  0
  5  8  1  0
  5 10  1  1
  7  8  2  0
  7 11  1  0
  8 12  1  0
 11 13  2  0
 12 14  2  0
 13 14  1  0
 15 16  1  0
M  END
$$$$
