 
     RDKit          2D

 52 54  0  0  0  0  0  0  0  0999 V2000
    6.6042  -11.5667    0.0000 C   0  0  0  0  0  0  0  0  0  0  0  0
    4.6667  -11.7500    0.0000 C   0  0  0  0  0  0  0  0  0  0  0  0
    3.2292  -11.7542    0.0000 C   0  0  0  0  0  0  0  0  0  0  0  0
    2.5042   -9.6917    0.0000 C   0  0  0  0  0  0  0  0  0  0  0  0
    3.9542  -12.1625    0.0000 C   0  0  0  0  0  0  0  0  0  0  0  0
    7.3167  -11.1417    0.0000 C   0  0  0  0  0  0  0  0  0  0  0  0
    5.3750  -10.5167    0.0000 C   0  0  0  0  0  0  0  0  0  0  0  0
    4.6625  -10.9250    0.0000 C   0  0  0  0  0  0  0  0  0  0  0  0
    3.2292   -8.4542    0.0000 C   0  0  0  0  0  0  0  0  0  0  0  0
    3.2292  -10.9292    0.0000 O   0  0  0  0  0  0  0  0  0  0  0  0
    3.2292   -9.2792    0.0000 C   0  0  0  0  0  0  0  0  0  0  0  0
    3.9417   -8.0417    0.0000 C   0  0  0  0  0  0  0  0  0  0  0  0
    6.0875  -10.9292    0.0000 O   0  0  0  0  0  0  0  0  0  0  0  0
    4.5000  -14.8375    0.0000 C   0  0  0  0  0  0  0  0  0  0  0  0
    8.0417  -11.5500    0.0000 C   0  0  0  0  0  0  0  0  0  0  0  0
    5.3750   -9.6917    0.0000 C   0  0  0  0  0  0  0  0  0  0  0  0
    4.5125  -13.3042    0.0000 C   0  0  0  0  0  0  0  0  0  0  0  0
    4.9292  -14.1292    0.0000 C   0  0  0  0  0  0  0  0  0  0  0  0
    6.6167  -12.3917    0.0000 O   0  0  0  0  0  0  0  0  0  0  0  0
    3.7042  -13.3792    0.0000 O   0  0  0  0  0  0  0  0  0  0  0  0
    2.5167  -10.5167    0.0000 C   0  0  0  0  0  0  0  0  0  0  0  0
    3.6750  -14.8125    0.0000 C   0  0  0  0  0  0  0  0  0  0  0  0
    5.0917  -12.5750    0.0000 O   0  0  0  0  0  0  0  0  0  0  0  0
    3.2750  -14.0792    0.0000 C   0  0  0  0  0  0  0  0  0  0  0  0
    4.6625   -8.4542    0.0000 C   0  0  0  0  0  0  0  0  0  0  0  0
    4.6625   -9.2792    0.0000 C   0  0  0  0  0  0  0  0  0  0  0  0
    8.0542  -12.3792    0.0000 C   0  0  0  0  0  0  0  0  0  0  0  0
    8.7542  -11.1292    0.0000 N   0  0  0  0  0  0  0  0  0  0  0  0
    2.5167  -12.1667    0.0000 O   0  0  0  0  0  0  0  0  0  0  0  0
    7.3417  -12.7917    0.0000 C   0  0  0  0  0  0  0  0  0  0  0  0
    3.9417   -7.2167    0.0000 O   0  0  0  0  0  0  0  0  0  0  0  0
    2.0042   -9.0417    0.0000 O   0  0  0  0  0  0  0  0  0  0  0  0
    7.3125  -10.3167    0.0000 O   0  0  0  0  0  0  0  0  0  0  0  0
    3.9417   -9.6917    0.0000 O   0  0  0  0  0  0  0  0  0  0  0  0
    4.0542  -15.5375    0.0000 O   0  0  0  0  0  0  0  0  0  0  0  0
    5.3667   -8.8625    0.0000 O   0  0  0  0  0  0  0  0  0  0  0  0
    3.2292  -15.5042    0.0000 O   0  0  0  0  0  0  0  0  0  0  0  0
    1.8417   -9.9375    0.0000 C   0  0  0  0  0  0  0  0  0  0  0  0
    3.8875  -12.8500    0.0000 C   0  0  0  0  0  0  0  0  0  0  0  0
    3.9417  -10.5125    0.0000 C   0  0  0  0  0  0  0  0  0  0  0  0
    2.5167   -8.0417    0.0000 C   0  0  0  0  0  0  0  0  0  0  0  0
    5.3167  -14.8625    0.0000 C   0  0  0  0  0  0  0  0  0  0  0  0
    6.0875  -10.1042    0.0000 C   0  0  0  0  0  0  0  0  0  0  0  0
    1.8042  -10.9292    0.0000 C   0  0  0  0  0  0  0  0  0  0  0  0
    2.4417  -14.0667    0.0000 C   0  0  0  0  0  0  0  0  0  0  0  0
    5.3750   -8.0417    0.0000 C   0  0  0  0  0  0  0  0  0  0  0  0
    8.7417  -10.3042    0.0000 C   0  0  0  0  0  0  0  0  0  0  0  0
    9.4750  -11.5375    0.0000 C   0  0  0  0  0  0  0  0  0  0  0  0
    7.3542  -13.5500    0.0000 C   0  0  0  0  0  0  0  0  0  0  0  0
    4.4500  -16.2667    0.0000 C   0  0  0  0  0  0  0  0  0  0  0  0
    6.0792   -8.4417    0.0000 C   0  0  0  0  0  0  0  0  0  0  0  0
    1.0875  -10.5167    0.0000 C   0  0  0  0  0  0  0  0  0  0  0  0
  2  8  1  0
  3  5  1  0
  4 11  1  0
  5  2  1  0
  6  1  1  0
  7 13  1  6
  8  7  1  0
  9 12  1  0
 10  3  1  0
 11  9  1  0
 12 25  1  0
  1 13  1  1
 14 18  1  0
 15  6  1  0
 16  7  1  0
 17 23  1  1
 18 17  1  0
 19  1  1  0
 20 17  1  0
 21 10  1  0
 22 24  1  0
  2 23  1  6
 24 20  1  0
 25 26  1  0
 26 16  1  0
 27 30  1  0
 15 28  1  1
 29  3  2  0
 30 19  1  0
 31 12  2  0
  4 32  1  0
  6 33  1  6
 11 34  1  1
 14 35  1  0
 16 36  1  0
 22 37  1  1
  4 38  1  6
  5 39  1  1
  8 40  1  6
  9 41  1  1
 14 42  1  6
 16 43  1  6
 21 44  1  6
 24 45  1  6
 25 46  1  6
 47 28  1  0
 48 28  1  0
 30 49  1  1
 50 35  1  0
 51 36  1  0
 52 44  1  0
 15 27  1  0
 21  4  1  0
 14 22  1  0
M  END
$$$$
