1110
     RDKit          2D

 25 27  0  0  1  0  0  0  0  0999 V2000
    3.7934   -0.6188    0.0000 Cl  0  0  0  0  0  0  0  0  0  0  0  0
    5.2223   -3.0938    0.0000 Cl  0  0  0  0  0  0  0  0  0  0  0  0
    4.5079    3.0938    0.0000 Cl  0  0  0  0  0  0  0  0  0  0  0  0
    1.6500    3.0938    0.0000 Cl  0  0  0  0  0  0  0  0  0  0  0  0
    4.5079    0.6188    0.0000 O   0  0  0  0  0  0  0  0  0  0  0  0
    5.9369    1.4438    0.0000 N   0  0  0  0  0  0  0  0  0  0  0  0
    6.3494    2.7133    0.0000 N   0  0  0  0  0  0  0  0  0  0  0  0
    5.2223    0.2063    0.0000 C   0  0  0  0  0  0  0  0  0  0  0  0
    5.9369    0.6188    0.0000 C   0  0  0  0  0  0  0  0  0  0  0  0
    5.2223   -0.6188    0.0000 C   0  0  0  0  0  0  0  0  0  0  0  0
    4.5079    1.4438    0.0000 C   0  0  0  0  0  0  0  0  0  0  0  0
    4.5079   -1.0313    0.0000 C   0  0  0  0  0  0  0  0  0  0  0  0
    5.9369   -1.0313    0.0000 C   0  0  0  0  0  0  0  0  0  0  0  0
    3.7934    1.8563    0.0000 C   0  0  0  0  0  0  0  0  0  0  0  0
    5.2694    1.9287    0.0000 C   0  0  0  0  0  0  0  0  0  0  0  0
    6.6043    1.9287    0.0000 C   0  0  0  0  0  0  0  0  0  0  0  0
    4.5079   -1.8563    0.0000 C   0  0  0  0  0  0  0  0  0  0  0  0
    5.9369   -1.8563    0.0000 C   0  0  0  0  0  0  0  0  0  0  0  0
    5.2223   -2.2688    0.0000 C   0  0  0  0  0  0  0  0  0  0  0  0
    5.5244    2.7133    0.0000 C   0  0  0  0  0  0  0  0  0  0  0  0
    3.7934    2.6812    0.0000 C   0  0  0  0  0  0  0  0  0  0  0  0
    3.0790    1.4438    0.0000 C   0  0  0  0  0  0  0  0  0  0  0  0
    3.0790    3.0938    0.0000 C   0  0  0  0  0  0  0  0  0  0  0  0
    2.3644    1.8563    0.0000 C   0  0  0  0  0  0  0  0  0  0  0  0
    2.3644    2.6812    0.0000 C   0  0  0  0  0  0  0  0  0  0  0  0
  1 12  1  0
  2 19  1  0
  3 21  1  0
  4 25  1  0
  5  8  1  0
  5 11  1  0
  6  9  1  0
  6 15  1  0
  6 16  1  0
  7 16  2  0
  7 20  1  0
  8  9  1  0
  8 10  1  0
 10 12  2  0
 10 13  1  0
 11 14  1  0
 12 17  1  0
 13 18  2  0
 14 21  2  0
 14 22  1  0
 15 20  2  0
 17 19  2  0
 18 19  1  0
 21 23  1  0
 22 24  2  0
 23 25  2  0
 24 25  1  0
M  END
$$$$
