1237
     RDKit          2D

 20 21  0  0  1  0  0  0  0  0999 V2000
    3.7935   -3.0938    0.0000 Br  0  0  0  0  0  0  0  0  0  0  0  0
    3.0791    0.6188    0.0000 O   0  0  0  0  0  0  0  0  0  0  0  0
    2.3645    2.6813    0.0000 N   0  0  0  0  0  0  0  0  0  0  0  0
    3.7935    0.2063    0.0000 C   0  0  0  0  0  0  0  0  0  0  0  0
    3.7935   -0.6188    0.0000 C   0  0  0  0  0  0  0  0  0  0  0  0
    4.5080    0.6188    0.0000 C   0  0  0  0  0  0  0  0  0  0  0  0
    3.0791    1.4438    0.0000 C   0  0  0  0  0  0  0  0  0  0  0  0
    2.3645    1.8563    0.0000 C   0  0  0  0  0  0  0  0  0  0  0  0
    4.5080   -1.0313    0.0000 C   0  0  0  0  0  0  0  0  0  0  0  0
    3.0791   -1.0313    0.0000 C   0  0  0  0  0  0  0  0  0  0  0  0
    4.5080    1.4438    0.0000 C   0  0  0  0  0  0  0  0  0  0  0  0
    5.2224    0.2063    0.0000 C   0  0  0  0  0  0  0  0  0  0  0  0
    1.6500    3.0938    0.0000 C   0  0  0  0  0  0  0  0  0  0  0  0
    3.0791    3.0938    0.0000 C   0  0  0  0  0  0  0  0  0  0  0  0
    4.5080   -1.8563    0.0000 C   0  0  0  0  0  0  0  0  0  0  0  0
    3.0791   -1.8563    0.0000 C   0  0  0  0  0  0  0  0  0  0  0  0
    5.2224    1.8563    0.0000 C   0  0  0  0  0  0  0  0  0  0  0  0
    5.9370    0.6188    0.0000 C   0  0  0  0  0  0  0  0  0  0  0  0
    3.7935   -2.2688    0.0000 C   0  0  0  0  0  0  0  0  0  0  0  0
    5.9370    1.4438    0.0000 C   0  0  0  0  0  0  0  0  0  0  0  0
  1 19  1  0
  2  4  1  0
  2  7  1  0
  3  8  1  0
  3 13  1  0
  3 14  1  0
  4  5  1  0
  4  6  1  0
  5  9  2  0
  5 10  1  0
  6 11  2  0
  6 12  1  0
  7  8  1  0
  9 15  1  0
 10 16  2  0
 11 17  1  0
 12 18  2  0
 15 19  2  0
 16 19  1  0
 17 20  2  0
 18 20  1  0
M  END
$$$$
