 
     RDKit          2D

 26 29  0  0  1  0  0  0  0  0999 V2000
   17.5799   -9.8519    0.0000 C   0  0  0  0  0  0  0  0  0  0  0  0
   18.2899  -10.2670    0.0000 C   0  0  0  0  0  0  0  0  0  0  0  0
   16.8630  -10.2635    0.0000 C   0  0  0  0  0  0  0  0  0  0  0  0
   17.5832   -9.0253    0.0000 C   0  0  0  0  0  0  0  0  0  0  0  0
   18.2899  -11.0936    0.0000 C   0  0  0  0  0  0  0  0  0  0  0  0
   19.0068   -9.8519    0.0000 C   0  0  0  0  0  0  0  0  0  0  0  0
   16.1495   -9.8451    0.0000 C   0  0  0  0  0  0  0  0  0  0  0  0
   16.8595  -11.0867    0.0000 O   0  0  0  0  0  0  0  0  0  0  0  0
   16.8699   -8.6136    0.0000 C   0  0  0  0  0  0  0  0  0  0  0  0
   18.2968   -8.6171    0.0000 O   0  0  0  0  0  0  0  0  0  0  0  0
   19.0068  -11.5018    0.0000 C   0  0  0  0  0  0  0  0  0  0  0  0
   19.7169  -10.2670    0.0000 C   0  0  0  0  0  0  0  0  0  0  0  0
   16.1530   -9.0184    0.0000 C   0  0  0  0  0  0  0  0  0  0  0  0
   15.4429  -10.2601    0.0000 C   0  0  0  0  0  0  0  0  0  0  0  0
   16.8732   -7.7871    0.0000 O   0  0  0  0  0  0  0  0  0  0  0  0
   19.7169  -11.0936    0.0000 C   0  0  0  0  0  0  0  0  0  0  0  0
   15.4429   -8.6102    0.0000 C   0  0  0  0  0  0  0  0  0  0  0  0
   14.7260   -9.8451    0.0000 C   0  0  0  0  0  0  0  0  0  0  0  0
   20.4338  -11.5018    0.0000 C   0  0  0  0  0  0  0  0  0  0  0  0
   14.7260   -9.0184    0.0000 C   0  0  0  0  0  0  0  0  0  0  0  0
   20.4338  -12.3285    0.0000 C   0  0  0  0  0  0  0  0  0  0  0  0
   21.1506  -11.0936    0.0000 C   0  0  0  0  0  0  0  0  0  0  0  0
   21.1506  -12.7435    0.0000 C   0  0  0  0  0  0  0  0  0  0  0  0
   21.8606  -11.5018    0.0000 C   0  0  0  0  0  0  0  0  0  0  0  0
   21.8606  -12.3285    0.0000 C   0  0  0  0  0  0  0  0  0  0  0  0
   22.5774  -12.7401    0.0000 Cl  0  0  0  0  0  0  0  0  0  0  0  0
  2  1  1  1
  1  3  1  0
  1  4  2  0
  2  5  1  0
  2  6  1  0
  3  7  1  0
  3  8  2  0
  4  9  1  0
  4 10  1  0
  5 11  1  0
  6 12  1  0
  7 13  2  0
  7 14  1  0
  9 15  2  0
 11 16  1  0
 13 17  1  0
 14 18  2  0
 16 19  1  6
 17 20  2  0
 19 21  2  0
 19 22  1  0
 21 23  1  0
 22 24  2  0
 23 25  2  0
 25 26  1  0
  9 13  1  0
 12 16  1  0
 18 20  1  0
 24 25  1  0
M  END
$$$$
