1588
     RDKit          2D

 23 26  0  0  0  0  0  0  0  0999 V2000
    3.6651   -2.5532    0.0000 Cl  0  0  0  0  0  0  0  0  0  0  0  0
    3.4586    2.1652    0.0000 O   0  0  0  0  0  0  0  0  0  0  0  0
    3.3022    0.7769    0.0000 N   0  0  0  0  0  0  0  0  0  0  0  0
    5.1560    0.7769    0.0000 N   0  0  0  0  0  0  0  0  0  0  0  0
    2.2548    1.7488    0.0000 C   0  0  0  0  0  0  0  0  0  0  0  0
    2.4384    2.5532    0.0000 C   0  0  0  0  0  0  0  0  0  0  0  0
    1.6500    2.3100    0.0000 C   0  0  0  0  0  0  0  0  0  0  0  0
    2.4979    0.9605    0.0000 C   0  0  0  0  0  0  0  0  0  0  0  0
    3.4859   -0.0274    0.0000 C   0  0  0  0  0  0  0  0  0  0  0  0
    3.8166    1.4220    0.0000 C   0  0  0  0  0  0  0  0  0  0  0  0
    4.2291   -0.3854    0.0000 C   0  0  0  0  0  0  0  0  0  0  0  0
    4.6416    1.4220    0.0000 C   0  0  0  0  0  0  0  0  0  0  0  0
    2.7684   -0.5004    0.0000 C   0  0  0  0  0  0  0  0  0  0  0  0
    4.9724   -0.0274    0.0000 C   0  0  0  0  0  0  0  0  0  0  0  0
    4.3066   -1.2412    0.0000 C   0  0  0  0  0  0  0  0  0  0  0  0
    2.8260   -1.3579    0.0000 C   0  0  0  0  0  0  0  0  0  0  0  0
    5.6174   -0.5418    0.0000 C   0  0  0  0  0  0  0  0  0  0  0  0
    3.6003   -1.7308    0.0000 C   0  0  0  0  0  0  0  0  0  0  0  0
    6.3854   -0.2403    0.0000 C   0  0  0  0  0  0  0  0  0  0  0  0
    5.4945   -1.3575    0.0000 C   0  0  0  0  0  0  0  0  0  0  0  0
    7.0304   -0.7547    0.0000 C   0  0  0  0  0  0  0  0  0  0  0  0
    6.1395   -1.8719    0.0000 C   0  0  0  0  0  0  0  0  0  0  0  0
    6.9074   -1.5705    0.0000 C   0  0  0  0  0  0  0  0  0  0  0  0
  1 18  1  0
  2 10  2  0
  3  8  1  0
  3  9  1  0
  3 10  1  0
  4 12  1  0
  4 14  2  0
  5  6  1  0
  5  7  1  0
  5  8  1  0
  6  7  1  0
  9 11  2  0
  9 13  1  0
 10 12  1  0
 11 14  1  0
 11 15  1  0
 13 16  2  0
 14 17  1  0
 15 18  2  0
 16 18  1  0
 17 19  2  0
 17 20  1  0
 19 21  1  0
 20 22  2  0
 21 23  2  0
 22 23  1  0
M  END
$$$$
