1626
     RDKit          2D

 12 12  0  0  1  0  0  0  0  0999 V2000
    3.0791    0.4909    0.0000 N   0  0  0  0  0  0  0  0  0  0  0  0
    2.3645    0.0784    0.0000 C   0  0  0  0  0  0  0  0  0  0  0  0
    2.3645   -0.7466    0.0000 C   0  0  0  0  0  0  0  0  0  0  0  0
    3.0791    1.3159    0.0000 C   0  0  0  0  0  0  0  0  0  0  0  0
    3.7935    0.0784    0.0000 C   0  0  0  0  0  0  0  0  0  0  0  0
    3.0791   -1.1592    0.0000 C   0  0  0  0  0  0  0  0  0  0  0  0
    1.6500   -1.1592    0.0000 C   0  0  0  0  0  0  0  0  0  0  0  0
    3.0791   -1.9842    0.0000 C   0  0  0  0  0  0  0  0  0  0  0  0
    1.6500   -1.9842    0.0000 C   0  0  0  0  0  0  0  0  0  0  0  0
    2.3645   -2.3967    0.0000 C   0  0  0  0  0  0  0  0  0  0  0  0
    3.7935    1.7284    0.0000 C   0  0  0  0  0  0  0  0  0  0  0  0
    4.5080    2.1409    0.0000 C   0  0  0  0  0  0  0  0  0  0  0  0
  1  2  1  0
  1  4  1  0
  1  5  1  0
  2  3  1  0
  3  6  2  0
  3  7  1  0
  4 11  1  0
  6  8  1  0
  7  9  2  0
  8 10  2  0
  9 10  1  0
 11 12  3  0
M  END
$$$$
