
     RDKit          2D

 69 71  0  0  1  0  0  0  0  0999 V2000
   16.6412  -10.7168    0.0000 N   0  0  0  0  0  0  0  0  0  0  0  0
   15.9133  -10.2801    0.0000 C   0  0  0  0  0  0  0  0  0  0  0  0
   15.1369  -10.7168    0.0000 C   0  0  0  0  0  0  0  0  0  0  0  0
   14.4575  -10.2801    0.0000 N   0  0  0  0  0  0  0  0  0  0  0  0
   13.7296  -10.7168    0.0000 C   0  0  0  0  0  0  0  0  0  0  0  0
   13.0017  -10.2801    0.0000 C   0  0  0  0  0  0  0  0  0  0  0  0
   12.2738  -10.7168    0.0000 N   0  0  0  0  0  0  0  0  0  0  0  0
   11.5459  -10.2801    0.0000 C   0  0  0  0  0  0  0  0  0  0  0  0
   10.8180  -10.7168    0.0000 O   0  0  0  0  0  0  0  0  0  0  0  0
   15.9133   -9.4551    0.0000 O   0  0  0  0  0  0  0  0  0  0  0  0
   13.7296  -11.5418    0.0000 O   0  0  0  0  0  0  0  0  0  0  0  0
   13.0017   -9.4551    0.0000 C   0  0  0  0  0  0  0  0  0  0  0  0
   13.7296   -9.0184    0.0000 C   0  0  0  0  0  0  0  0  0  0  0  0
   14.4575   -9.4551    0.0000 C   0  0  0  0  0  0  0  0  0  0  0  0
   11.5459   -9.4551    0.0000 C   0  0  0  0  0  0  0  0  0  0  0  0
   12.2252   -8.9699    0.0000 C   0  0  0  0  0  0  0  0  0  0  0  0
   10.8665   -8.9699    0.0000 N   0  0  0  0  0  0  0  0  0  0  0  0
   11.9341   -8.1449    0.0000 C   0  0  0  0  0  0  0  0  0  0  0  0
   11.1091   -8.1449    0.0000 C   0  0  0  0  0  0  0  0  0  0  0  0
   10.1386   -9.3581    0.0000 C   0  0  0  0  0  0  0  0  0  0  0  0
    9.4107   -8.9699    0.0000 C   0  0  0  0  0  0  0  0  0  0  0  0
    8.6828   -9.3581    0.0000 N   0  0  0  0  0  0  0  0  0  0  0  0
    7.9549   -8.9699    0.0000 C   0  0  0  0  0  0  0  0  0  0  0  0
    7.2270   -9.3581    0.0000 C   0  0  0  0  0  0  0  0  0  0  0  0
    6.4991   -8.9699    0.0000 N   0  0  0  0  0  0  0  0  0  0  0  0
   10.1386  -10.1831    0.0000 O   0  0  0  0  0  0  0  0  0  0  0  0
    9.4107   -8.1449    0.0000 C   0  0  0  0  0  0  0  0  0  0  0  0
   10.1386   -7.7082    0.0000 S   0  0  0  0  0  0  0  0  0  0  0  0
   10.1386   -6.8347    0.0000 C   0  0  0  0  0  0  0  0  0  0  0  0
    7.9549   -8.1449    0.0000 O   0  0  0  0  0  0  0  0  0  0  0  0
    7.2270  -10.1831    0.0000 C   0  0  0  0  0  0  0  0  0  0  0  0
    6.4991  -10.6198    0.0000 C   0  0  0  0  0  0  0  0  0  0  0  0
    6.4991  -11.4933    0.0000 O   0  0  0  0  0  0  0  0  0  0  0  0
    5.7712  -10.2316    0.0000 N   0  0  0  0  0  0  0  0  0  0  0  0
    6.4991   -8.1449    0.0000 C   0  0  0  0  0  0  0  0  0  0  0  0
    5.7227   -7.7082    0.0000 C   0  0  0  0  0  0  0  0  0  0  0  0
    7.2270   -7.7082    0.0000 O   0  0  0  0  0  0  0  0  0  0  0  0
    5.0433   -8.1449    0.0000 C   0  0  0  0  0  0  0  0  0  0  0  0
    4.3154   -7.7082    0.0000 C   0  0  0  0  0  0  0  0  0  0  0  0
    3.5875   -8.1449    0.0000 C   0  0  0  0  0  0  0  0  0  0  0  0
    2.8596   -7.7082    0.0000 N   0  0  0  0  0  0  0  0  0  0  0  0
    3.5875   -8.9699    0.0000 O   0  0  0  0  0  0  0  0  0  0  0  0
    5.7227   -6.8832    0.0000 N   0  0  0  0  0  0  0  0  0  0  0  0
    5.0433   -5.6215    0.0000 C   0  0  0  0  0  0  0  0  0  0  0  0
    5.7227   -5.1848    0.0000 C   0  0  0  0  0  0  0  0  0  0  0  0
    6.4991   -5.6215    0.0000 C   0  0  0  0  0  0  0  0  0  0  0  0
    6.4991   -6.4464    0.0000 C   0  0  0  0  0  0  0  0  0  0  0  0
    4.3154   -5.1848    0.0000 C   0  0  0  0  0  0  0  0  0  0  0  0
    9.4107   -5.6215    0.0000 N   0  0  0  0  0  0  0  0  0  0  0  0
   10.1386   -5.1848    0.0000 C   0  0  0  0  0  0  0  0  0  0  0  0
   10.8665   -5.6215    0.0000 C   0  0  0  0  0  0  0  0  0  0  0  0
   10.8665   -6.4464    0.0000 C   0  0  0  0  0  0  0  0  0  0  0  0
    7.9549   -5.6215    0.0000 C   0  0  0  0  0  0  0  0  0  0  0  0
    7.9549   -6.4464    0.0000 O   0  0  0  0  0  0  0  0  0  0  0  0
    8.6828   -5.1848    0.0000 C   0  0  0  0  0  0  0  0  0  0  0  0
    7.2270   -5.1848    0.0000 N   0  0  0  0  0  0  0  0  0  0  0  0
    7.2270   -6.8347    0.0000 O   0  0  0  0  0  0  0  0  0  0  0  0
    8.6828   -4.3113    0.0000 C   0  0  0  0  0  0  0  0  0  0  0  0
    7.2270   -4.3113    0.0000 C   0  0  0  0  0  0  0  0  0  0  0  0
    7.9549   -3.9231    0.0000 C   0  0  0  0  0  0  0  0  0  0  0  0
    6.4991   -3.9231    0.0000 C   0  0  0  0  0  0  0  0  0  0  0  0
    6.4991   -3.0981    0.0000 C   0  0  0  0  0  0  0  0  0  0  0  0
    7.9549   -3.0981    0.0000 C   0  0  0  0  0  0  0  0  0  0  0  0
    7.2270   -2.6614    0.0000 C   0  0  0  0  0  0  0  0  0  0  0  0
   10.1386   -4.3113    0.0000 O   0  0  0  0  0  0  0  0  0  0  0  0
    5.7712   -2.6614    0.0000 O   0  0  0  0  0  0  0  0  0  0  0  0
   13.7296   -8.1934    0.0000 C   0  0  0  0  0  0  0  0  0  0  0  0
    5.7227   -4.3598    0.0000 C   0  0  0  0  0  0  0  0  0  0  0  0
    5.7227   -1.8364    0.0000 C   0  0  0  0  0  0  0  0  0  0  0  0
  2  1  1  0
  3  2  1  0
 10  2  2  0
  4  3  1  0
  5  4  1  0
  6  5  1  0
 11  5  2  0
  7  6  1  0
  6 12  1  1
  8  7  1  0
  9  8  2  0
 15  8  1  1
 13 12  1  0
 14 13  1  0
 67 13  1  0
 16 15  1  0
 17 15  1  0
 18 16  1  0
 19 17  1  0
 20 17  1  0
 19 18  1  0
 21 20  1  1
 26 20  2  0
 21 22  1  0
 27 21  1  0
 23 22  1  0
 24 23  1  0
 30 23  2  0
 25 24  1  0
 24 31  1  6
 35 25  1  0
 28 27  1  0
 29 28  1  0
 52 29  1  0
 32 31  1  0
 33 32  2  0
 34 32  1  0
 36 35  1  0
 37 35  2  0
 36 38  1  6
 43 36  1  0
 39 38  1  0
 40 39  1  0
 41 40  1  0
 42 40  2  0
 47 43  1  0
 45 44  1  0
 48 44  1  0
 46 45  1  0
 45 68  1  6
 46 56  1  6
 47 46  1  0
 57 47  2  0
 50 49  1  0
 55 49  1  0
 51 50  1  0
 65 50  2  0
 52 51  1  0
 54 53  2  0
 55 53  1  0
 56 53  1  0
 55 58  1  6
 60 58  1  0
 61 59  2  0
 60 59  1  0
 63 60  2  0
 62 61  1  0
 64 62  2  0
 66 62  1  0
 64 63  1  0
 69 66  1  0
M  END
$$$$
