1179
     RDKit          2D

 30 34  0  0  1  0  0  0  0  0999 V2000
    4.7435    2.5059    0.0000 O   0  0  0  0  0  0  0  0  0  0  0  0
    2.3263    1.6191    0.0000 O   0  0  0  0  0  0  0  0  0  0  0  0
    5.8850    1.5868    0.0000 O   0  0  0  0  0  0  0  0  0  0  0  0
    2.8478   -2.1607    0.0000 O   0  0  0  0  0  0  0  0  0  0  0  0
    1.6500   -1.4691    0.0000 O   0  0  0  0  0  0  0  0  0  0  0  0
    5.8986   -2.0934    0.0000 O   0  0  0  0  0  0  0  0  0  0  0  0
    7.3276    0.3816    0.0000 O   0  0  0  0  0  0  0  0  0  0  0  0
    7.3276   -1.2684    0.0000 O   0  0  0  0  0  0  0  0  0  0  0  0
    3.7552    1.6191    0.0000 C   0  0  0  0  0  0  0  0  0  0  0  0
    4.4697    1.2066    0.0000 C   0  0  0  0  0  0  0  0  0  0  0  0
    4.4697    0.3816    0.0000 C   0  0  0  0  0  0  0  0  0  0  0  0
    3.0407    1.2066    0.0000 C   0  0  0  0  0  0  0  0  0  0  0  0
    3.7552   -0.0309    0.0000 C   0  0  0  0  0  0  0  0  0  0  0  0
    3.9278    2.4209    0.0000 C   0  0  0  0  0  0  0  0  0  0  0  0
    3.0407    0.3816    0.0000 C   0  0  0  0  0  0  0  0  0  0  0  0
    5.0777    1.7569    0.0000 C   0  0  0  0  0  0  0  0  0  0  0  0
    5.1841   -0.0309    0.0000 C   0  0  0  0  0  0  0  0  0  0  0  0
    3.7684   -0.8901    0.0000 C   0  0  0  0  0  0  0  0  0  0  0  0
    2.2900   -0.0365    0.0000 C   0  0  0  0  0  0  0  0  0  0  0  0
    3.0276   -1.3255    0.0000 C   0  0  0  0  0  0  0  0  0  0  0  0
    2.2834   -0.8959    0.0000 C   0  0  0  0  0  0  0  0  0  0  0  0
    5.8986    0.3816    0.0000 C   0  0  0  0  0  0  0  0  0  0  0  0
    5.1841   -0.8559    0.0000 C   0  0  0  0  0  0  0  0  0  0  0  0
    5.8986   -1.2684    0.0000 C   0  0  0  0  0  0  0  0  0  0  0  0
    6.6131   -0.0309    0.0000 C   0  0  0  0  0  0  0  0  0  0  0  0
    6.6131   -0.8559    0.0000 C   0  0  0  0  0  0  0  0  0  0  0  0
    1.9982   -2.2492    0.0000 C   0  0  0  0  0  0  0  0  0  0  0  0
    6.6131   -2.5059    0.0000 C   0  0  0  0  0  0  0  0  0  0  0  0
    7.3276    1.2066    0.0000 C   0  0  0  0  0  0  0  0  0  0  0  0
    8.0420   -0.8559    0.0000 C   0  0  0  0  0  0  0  0  0  0  0  0
  1 14  1  0
  1 16  1  0
 12  2  1  6
  3 16  2  0
  4 20  1  0
  4 27  1  0
  5 21  1  0
  5 27  1  0
  6 24  1  0
  6 28  1  0
  7 25  1  0
  7 29  1  0
  8 26  1  0
  8 30  1  0
  9 10  1  0
  9 12  1  0
  9 14  1  1
 10 11  1  0
 10 16  1  6
 11 13  1  0
 11 17  1  6
 12 15  1  0
 13 15  2  0
 13 18  1  0
 15 19  1  0
 17 22  2  0
 17 23  1  0
 18 20  2  0
 19 21  2  0
 20 21  1  0
 22 25  1  0
 23 24  2  0
 24 26  1  0
 25 26  2  0
M  END
$$$$
