1024
     RDKit          2D

 23 24  0  0  0  0  0  0  0  0999 V2000
    9.7855   -0.1279    0.0000 O   0  0  0  0  0  0  0  0  0  0  0  0
    6.3799   -0.9529    0.0000 O   0  0  0  0  0  0  0  0  0  0  0  0
    7.8089    1.5222    0.0000 O   0  0  0  0  0  0  0  0  0  0  0  0
    9.5603    1.3203    0.0000 O   0  0  0  0  0  0  0  0  0  0  0  0
    2.0930    0.6971    0.0000 O   0  0  0  0  0  0  0  0  0  0  0  0
    2.8075   -0.5404    0.0000 O   0  0  0  0  0  0  0  0  0  0  0  0
    8.5234   -0.5404    0.0000 C   0  0  0  0  0  0  0  0  0  0  0  0
    7.0944    0.2846    0.0000 C   0  0  0  0  0  0  0  0  0  0  0  0
    8.5234    0.2846    0.0000 C   0  0  0  0  0  0  0  0  0  0  0  0
    7.8089   -0.9529    0.0000 C   0  0  0  0  0  0  0  0  0  0  0  0
    7.0944   -0.5404    0.0000 C   0  0  0  0  0  0  0  0  0  0  0  0
    7.8089    0.6971    0.0000 C   0  0  0  0  0  0  0  0  0  0  0  0
    6.3799    0.6971    0.0000 C   0  0  0  0  0  0  0  0  0  0  0  0
    9.3041   -0.7918    0.0000 C   0  0  0  0  0  0  0  0  0  0  0  0
    9.3041    0.5360    0.0000 C   0  0  0  0  0  0  0  0  0  0  0  0
    5.6655    0.2846    0.0000 C   0  0  0  0  0  0  0  0  0  0  0  0
    7.8089   -1.7779    0.0000 C   0  0  0  0  0  0  0  0  0  0  0  0
    4.9509    0.6971    0.0000 C   0  0  0  0  0  0  0  0  0  0  0  0
    4.2365    0.2846    0.0000 C   0  0  0  0  0  0  0  0  0  0  0  0
    3.5220    0.6971    0.0000 C   0  0  0  0  0  0  0  0  0  0  0  0
    4.9509    1.5222    0.0000 C   0  0  0  0  0  0  0  0  0  0  0  0
    6.3799   -1.7779    0.0000 C   0  0  0  0  0  0  0  0  0  0  0  0
    2.8075    0.2846    0.0000 C   0  0  0  0  0  0  0  0  0  0  0  0
  1 14  1  0
  1 15  1  0
  2 11  1  0
  2 22  1  0
  3 12  1  0
  4 15  2  0
  5 23  1  0
  6 23  2  0
  7  9  2  0
  7 10  1  0
  7 14  1  0
  8 11  1  0
  8 12  2  0
  8 13  1  0
  9 12  1  0
  9 15  1  0
 10 11  2  0
 10 17  1  0
 13 16  1  0
 16 18  2  0
 18 19  1  0
 18 21  1  0
 19 20  1  0
 20 23  1  0
M  END
$$$$
