
     RDKit          2D

 36 40  0  0  1  0  0  0  0  0999 V2000
    3.6858    0.4836    0.0000 C   0  0  0  0  0  0  0  0  0  0  0  0
    0.8759   -2.4117    0.0000 C   0  0  0  0  0  0  0  0  0  0  0  0
    1.8741    0.3097    0.0000 C   0  0  0  0  0  0  0  0  0  0  0  0
    4.3080   -1.3683    0.0000 C   0  0  0  0  0  0  0  0  0  0  0  0
    1.6817   -2.1282    0.0000 C   0  0  0  0  0  0  0  0  0  0  0  0
    5.1705   -6.4820    0.0000 C   0  0  0  0  0  0  0  0  0  0  0  0
    4.0553   -0.2540    0.0000 C   0  0  0  0  0  0  0  0  0  0  0  0
    5.6272   -4.5639    0.0000 C   0  0  0  0  0  0  0  0  0  0  0  0
    6.3527   -4.5861    0.0000 C   0  0  0  0  0  0  0  0  0  0  0  0
    0.1142   -1.1468    0.0000 C   0  0  0  0  0  0  0  0  0  0  0  0
    0.3260   -0.1904    0.0000 C   0  0  0  0  0  0  0  0  0  0  0  0
    0.5791   -0.6364    0.0000 C   0  0  0  0  0  0  0  0  0  0  0  0
    0.6293   -0.9576    0.0000 C   0  0  0  0  0  0  0  0  0  0  0  0
    4.1851   -4.4900    0.0000 C   0  0  0  0  0  0  0  0  0  0  0  0
    4.7139   -4.3702    0.0000 C   0  0  0  0  0  0  0  0  0  0  0  0
    3.3539   -1.3945    0.0000 C   0  0  0  0  0  0  0  0  0  0  0  0
    3.8680   -2.4552    0.0000 C   0  0  0  0  0  0  0  0  0  0  0  0
    0.9262   -1.5882    0.0000 C   0  0  0  0  0  0  0  0  0  0  0  0
    2.0897   -0.4866    0.0000 C   0  0  0  0  0  0  0  0  0  0  0  0
    4.9722   -4.9833    0.0000 C   0  0  0  0  0  0  0  0  0  0  0  0
    5.5285   -4.8998    0.0000 C   0  0  0  0  0  0  0  0  0  0  0  0
    4.5148   -3.7294    0.0000 C   0  0  0  0  0  0  0  0  0  0  0  0
    0.9620    0.3351    0.0000 C   0  0  0  0  0  0  0  0  0  0  0  0
    2.4856   -1.5544    0.0000 C   0  0  0  0  0  0  0  0  0  0  0  0
    3.1324   -2.8286    0.0000 C   0  0  0  0  0  0  0  0  0  0  0  0
    1.6583   -0.1073    0.0000 C   0  0  0  0  0  0  0  0  0  0  0  0
    3.0381   -0.5376    0.0000 C   0  0  0  0  0  0  0  0  0  0  0  0
    3.6012   -0.9428    0.0000 C   0  0  0  0  0  0  0  0  0  0  0  0
    1.6462   -1.3040    0.0000 C   0  0  0  0  0  0  0  0  0  0  0  0
    1.4527   -0.9063    0.0000 C   0  0  0  0  0  0  0  0  0  0  0  0
    5.2024   -5.6577    0.0000 N   0  0  0  0  0  0  0  0  0  0  0  0
    0.9106    1.1585    0.0000 O   0  0  0  0  0  0  0  0  0  0  0  0
    3.0879   -3.6524    0.0000 O   0  0  0  0  0  0  0  0  0  0  0  0
    3.3122    0.2405    0.0000 O   0  0  0  0  0  0  0  0  0  0  0  0
    2.4412   -2.3782    0.0000 O   0  0  0  0  0  0  0  0  0  0  0  0
    4.5592   -2.9056    0.0000 S   0  0  0  0  0  0  0  0  0  0  0  0
  7  1  2  3
  9  8  1  0
 12 10  1  0
 13 11  1  0
 18  2  1  6
 18 10  1  0
 19  3  1  1
 20  8  1  1
 20 14  1  0
 21  9  1  6
 21 15  1  0
 22 14  1  0
 22 15  1  0
 23 11  1  0
 24 16  1  0
 25 17  1  0
 26 23  1  1
 27 19  1  0
 28  4  1  1
 28  7  1  0
 28 16  1  0
 28 27  1  0
 29  5  1  1
 29 18  1  0
 29 24  1  0
 29 26  1  0
 30 12  1  1
 30 13  1  0
 30 19  1  0
 30 26  1  0
 31  6  1  0
 31 20  1  0
 31 21  1  0
 32 23  2  0
 33 25  2  0
 27 34  1  6
 24 35  1  1
 35 25  1  0
 36 17  1  0
 22 36  1  1
M  END
$$$$
