
     RDKit          2D

 51 57  0  0  1  0  0  0  0  0999 V2000
    3.5556    9.2855    0.0000 C   0  0  0  0  0  0  0  0  0  0  0  0
    5.8677   10.9653    0.0000 C   0  0  0  0  0  0  0  0  0  0  0  0
    3.8912   10.0391    0.0000 C   0  0  0  0  0  0  0  0  0  0  0  0
    7.2310   -4.6945    0.0000 C   0  0  0  0  0  0  0  0  0  0  0  0
    6.3235    6.1259    0.0000 C   0  0  0  0  0  0  0  0  0  0  0  0
    4.8946    6.1259    0.0000 C   0  0  0  0  0  0  0  0  0  0  0  0
    6.3235    6.9509    0.0000 C   0  0  0  0  0  0  0  0  0  0  0  0
    4.8946    6.9509    0.0000 C   0  0  0  0  0  0  0  0  0  0  0  0
    4.8946    2.0009    0.0000 C   0  0  0  0  0  0  0  0  0  0  0  0
    6.3235    2.0009    0.0000 C   0  0  0  0  0  0  0  0  0  0  0  0
    4.8946    1.1759    0.0000 C   0  0  0  0  0  0  0  0  0  0  0  0
    6.3235    1.1759    0.0000 C   0  0  0  0  0  0  0  0  0  0  0  0
    7.3172   -3.8741    0.0000 C   0  0  0  0  0  0  0  0  0  0  0  0
    4.8946    4.4759    0.0000 C   0  0  0  0  0  0  0  0  0  0  0  0
    6.3235    4.4759    0.0000 C   0  0  0  0  0  0  0  0  0  0  0  0
    4.8946    3.6509    0.0000 C   0  0  0  0  0  0  0  0  0  0  0  0
    6.3235    3.6509    0.0000 C   0  0  0  0  0  0  0  0  0  0  0  0
    5.8099   -4.5452    0.0000 C   0  0  0  0  0  0  0  0  0  0  0  0
    6.9910   -1.7840    0.0000 C   0  0  0  0  0  0  0  0  0  0  0  0
    6.3235   -0.4741    0.0000 C   0  0  0  0  0  0  0  0  0  0  0  0
    5.6561   -1.7840    0.0000 C   0  0  0  0  0  0  0  0  0  0  0  0
    7.5430   -2.7402    0.0000 C   0  0  0  0  0  0  0  0  0  0  0  0
    9.2511   -1.4596    0.0000 C   0  0  0  0  0  0  0  0  0  0  0  0
    7.9235   -1.3201    0.0000 C   0  0  0  0  0  0  0  0  0  0  0  0
    6.2765    8.6733    0.0000 C   0  0  0  0  0  0  0  0  0  0  0  0
    5.0472   10.8791    0.0000 C   0  0  0  0  0  0  0  0  0  0  0  0
    6.3235   -1.2991    0.0000 C   0  0  0  0  0  0  0  0  0  0  0  0
    6.4773   -5.0301    0.0000 C   0  0  0  0  0  0  0  0  0  0  0  0
    5.6091    5.7134    0.0000 C   0  0  0  0  0  0  0  0  0  0  0  0
    5.6091    2.4134    0.0000 C   0  0  0  0  0  0  0  0  0  0  0  0
    5.6091    7.3634    0.0000 C   0  0  0  0  0  0  0  0  0  0  0  0
    5.6091    0.7634    0.0000 C   0  0  0  0  0  0  0  0  0  0  0  0
    6.6498   -3.3891    0.0000 C   0  0  0  0  0  0  0  0  0  0  0  0
    5.8961   -3.7247    0.0000 C   0  0  0  0  0  0  0  0  0  0  0  0
    4.7116   10.1254    0.0000 C   0  0  0  0  0  0  0  0  0  0  0  0
    4.9416    8.6733    0.0000 C   0  0  0  0  0  0  0  0  0  0  0  0
    6.7360   -2.5687    0.0000 C   0  0  0  0  0  0  0  0  0  0  0  0
    6.3911   -5.8506    0.0000 F   0  0  0  0  0  0  0  0  0  0  0  0
    5.2287   -3.2398    0.0000 F   0  0  0  0  0  0  0  0  0  0  0  0
    8.6380   -0.9076    0.0000 N   0  0  0  0  0  0  0  0  0  0  0  0
    8.9155   -2.2133    0.0000 N   0  0  0  0  0  0  0  0  0  0  0  0
    6.0216    9.4579    0.0000 N   0  0  0  0  0  0  0  0  0  0  0  0
    5.6091    4.8884    0.0000 N   0  0  0  0  0  0  0  0  0  0  0  0
    5.6091    3.2384    0.0000 N   0  0  0  0  0  0  0  0  0  0  0  0
    8.0950   -2.1271    0.0000 N   0  0  0  0  0  0  0  0  0  0  0  0
    5.6091    8.1884    0.0000 N   0  0  0  0  0  0  0  0  0  0  0  0
    5.1966    9.4579    0.0000 N   0  0  0  0  0  0  0  0  0  0  0  0
    4.5623   11.5465    0.0000 O   0  0  0  0  0  0  0  0  0  0  0  0
    4.1570    8.4184    0.0000 O   0  0  0  0  0  0  0  0  0  0  0  0
    5.6091   -0.0616    0.0000 O   0  0  0  0  0  0  0  0  0  0  0  0
    5.9110   -2.5687    0.0000 O   0  0  0  0  0  0  0  0  0  0  0  0
  3  1  1  0
  7  5  2  0
  8  6  1  0
 11  9  2  0
 12 10  1  0
 13  4  2  0
 16 14  1  0
 17 15  1  0
 26  2  1  1
 27 19  1  0
 27 20  1  1
 27 21  1  0
 28  4  1  0
 28 18  2  0
 29  5  1  0
 29  6  2  0
 30  9  1  0
 30 10  2  0
 31  7  1  0
 31  8  2  0
 32 11  1  0
 32 12  2  0
 33 13  1  0
 34 18  1  0
 34 33  2  0
 35  3  1  1
 35 26  1  0
 37 19  1  0
 37 22  1  1
 37 33  1  0
 38 28  1  0
 39 34  1  0
 40 23  1  0
 40 24  2  0
 41 23  2  0
 42 25  2  0
 43 14  1  0
 43 15  1  0
 43 29  1  0
 44 16  1  0
 44 17  1  0
 44 30  1  0
 45 22  1  0
 45 24  1  0
 45 41  1  0
 46 25  1  0
 46 31  1  0
 46 36  1  0
 35 47  1  0
 47 36  1  0
 47 42  1  0
 26 48  1  0
 49 36  2  0
 50 20  1  0
 50 32  1  0
 51 21  1  0
 51 37  1  0
M  END
$$$$
