1149
     RDKit          2D

 33 36  0  0  0  0  0  0  0  0999 V2000
    1.6500   -5.0560    0.0000 Cl  0  0  0  0  0  0  0  0  0  0  0  0
    3.9811    2.9167    0.0000 O   0  0  0  0  0  0  0  0  0  0  0  0
    6.8929    4.1298    0.0000 O   0  0  0  0  0  0  0  0  0  0  0  0
    3.0791   -0.9309    0.0000 N   0  0  0  0  0  0  0  0  0  0  0  0
    3.0791   -2.5809    0.0000 N   0  0  0  0  0  0  0  0  0  0  0  0
    4.5080    1.5442    0.0000 N   0  0  0  0  0  0  0  0  0  0  0  0
    5.4012    2.5362    0.0000 N   0  0  0  0  0  0  0  0  0  0  0  0
    5.2616    1.2086    0.0000 N   0  0  0  0  0  0  0  0  0  0  0  0
    2.3645   -1.3434    0.0000 C   0  0  0  0  0  0  0  0  0  0  0  0
    3.7935   -1.3434    0.0000 C   0  0  0  0  0  0  0  0  0  0  0  0
    2.3645   -2.1684    0.0000 C   0  0  0  0  0  0  0  0  0  0  0  0
    3.7935   -2.1684    0.0000 C   0  0  0  0  0  0  0  0  0  0  0  0
    3.0791   -0.1058    0.0000 C   0  0  0  0  0  0  0  0  0  0  0  0
    3.7935    0.3067    0.0000 C   0  0  0  0  0  0  0  0  0  0  0  0
    3.7935    1.1317    0.0000 C   0  0  0  0  0  0  0  0  0  0  0  0
    3.0791   -3.4059    0.0000 C   0  0  0  0  0  0  0  0  0  0  0  0
    4.5942    2.3647    0.0000 C   0  0  0  0  0  0  0  0  0  0  0  0
    5.8137    1.8217    0.0000 C   0  0  0  0  0  0  0  0  0  0  0  0
    2.3645   -3.8184    0.0000 C   0  0  0  0  0  0  0  0  0  0  0  0
    3.7935   -3.8184    0.0000 C   0  0  0  0  0  0  0  0  0  0  0  0
    5.7368    3.2899    0.0000 C   0  0  0  0  0  0  0  0  0  0  0  0
    6.6342    1.7355    0.0000 C   0  0  0  0  0  0  0  0  0  0  0  0
    2.3645   -4.6434    0.0000 C   0  0  0  0  0  0  0  0  0  0  0  0
    3.7935   -4.6434    0.0000 C   0  0  0  0  0  0  0  0  0  0  0  0
    6.5572    3.3761    0.0000 C   0  0  0  0  0  0  0  0  0  0  0  0
    3.0791   -5.0560    0.0000 C   0  0  0  0  0  0  0  0  0  0  0  0
    6.9698    0.9818    0.0000 C   0  0  0  0  0  0  0  0  0  0  0  0
    7.7133    4.2161    0.0000 C   0  0  0  0  0  0  0  0  0  0  0  0
    8.0489    4.9697    0.0000 C   0  0  0  0  0  0  0  0  0  0  0  0
    8.1983    3.5486    0.0000 C   0  0  0  0  0  0  0  0  0  0  0  0
    8.8694    5.0560    0.0000 C   0  0  0  0  0  0  0  0  0  0  0  0
    9.0188    3.6349    0.0000 C   0  0  0  0  0  0  0  0  0  0  0  0
    9.3543    4.3885    0.0000 C   0  0  0  0  0  0  0  0  0  0  0  0
  1 23  1  0
  2 17  2  0
  3 25  1  0
  3 28  1  0
  4  9  1  0
  4 10  1  0
  4 13  1  0
  5 11  1  0
  5 12  1  0
  5 16  1  0
  6  8  1  0
  6 15  1  0
  6 17  1  0
  7 17  1  0
  7 18  1  0
  7 21  1  0
  8 18  2  0
  9 11  1  0
 10 12  1  0
 13 14  1  0
 14 15  1  0
 16 19  2  0
 16 20  1  0
 18 22  1  0
 19 23  1  0
 20 24  2  0
 21 25  1  0
 22 27  1  0
 23 26  2  0
 24 26  1  0
 28 29  2  0
 28 30  1  0
 29 31  1  0
 30 32  2  0
 31 33  2  0
 32 33  1  0
M  END
$$$$
