 
     RDKit          2D

 21 24  0  0  1  0  0  0  0  0999 V2000
   14.1297   -8.7150    0.0000 C   0  0  0  0  0  0  0  0  0  0  0  0
   14.1080   -9.6230    0.0000 C   0  0  0  0  0  0  0  0  0  0  0  0
   14.8416   -8.3265    0.0000 C   0  0  0  0  0  0  0  0  0  0  0  0
   13.4201   -8.4477    0.0000 N   0  0  0  0  0  0  0  0  0  0  0  0
   13.3761   -9.8557    0.0000 N   0  0  0  0  0  0  0  0  0  0  0  0
   14.8241  -10.0751    0.0000 N   0  0  0  0  0  0  0  0  0  0  0  0
   14.8162   -7.5107    0.0000 N   0  0  0  0  0  0  0  0  0  0  0  0
   15.5984   -8.7882    0.0000 N   0  0  0  0  0  0  0  0  0  0  0  0
   12.8916   -9.1264    0.0000 C   0  0  0  0  0  0  0  0  0  0  0  0
   12.6909  -10.4135    0.0000 C   0  0  0  0  0  0  0  0  0  0  0  0
   15.6221   -9.6685    0.0000 C   0  0  0  0  0  0  0  0  0  0  0  0
   15.5879   -7.1102    0.0000 C   0  0  0  0  0  0  0  0  0  0  0  0
   12.0001   -9.9303    0.0000 C   0  0  0  0  0  0  0  0  0  0  0  0
   12.4593  -11.1629    0.0000 C   0  0  0  0  0  0  0  0  0  0  0  0
   16.2892  -10.1017    0.0000 N   0  0  0  0  0  0  0  0  0  0  0  0
   16.4135   -7.1251    0.0000 C   0  0  0  0  0  0  0  0  0  0  0  0
   16.0079   -6.3957    0.0000 C   0  0  0  0  0  0  0  0  0  0  0  0
   11.3617  -10.4173    0.0000 C   0  0  0  0  0  0  0  0  0  0  0  0
   11.6374  -11.1868    0.0000 C   0  0  0  0  0  0  0  0  0  0  0  0
   10.5813  -10.1969    0.0000 C   0  0  0  0  0  0  0  0  0  0  0  0
    9.9369  -10.7120    0.0000 O   0  0  0  0  0  0  0  0  0  0  0  0
  1  2  2  0
  1  3  1  0
  1  4  1  0
  2  5  1  0
  2  6  1  0
  3  7  1  0
  3  8  2  0
  4  9  2  0
 10  5  1  1
  6 11  2  0
  7 12  1  0
 10 13  1  0
 10 14  1  0
 11 15  1  0
 12 16  1  0
 12 17  1  0
 13 18  1  0
 14 19  2  0
 18 20  1  1
 20 21  1  0
  5  9  1  0
  8 11  1  0
 16 17  1  0
 18 19  1  0
M  END
$$$$
