1598
     RDKit          2D

 20 21  0  0  1  0  0  0  0  0999 V2000
    5.9559   -0.2382    0.0000 S   0  0  0  0  0  0  0  0  0  0  0  0
    2.6625    1.5588    0.0000 O   0  0  0  0  0  0  0  0  0  0  0  0
    2.4474   -1.2387    0.0000 O   0  0  0  0  0  0  0  0  0  0  0  0
    5.7079   -1.8618    0.0000 O   0  0  0  0  0  0  0  0  0  0  0  0
    4.3488   -2.3033    0.0000 O   0  0  0  0  0  0  0  0  0  0  0  0
    3.8613   -0.6507    0.0000 N   0  0  0  0  0  0  0  0  0  0  0  0
    7.6059    1.1908    0.0000 N   0  0  0  0  0  0  0  0  0  0  0  0
    8.8434    1.9053    0.0000 N   0  0  0  0  0  0  0  0  0  0  0  0
    3.8613    0.1743    0.0000 C   0  0  0  0  0  0  0  0  0  0  0  0
    3.0295    0.1778    0.0000 C   0  0  0  0  0  0  0  0  0  0  0  0
    4.6459    0.4292    0.0000 C   0  0  0  0  0  0  0  0  0  0  0  0
    3.0295   -0.6541    0.0000 C   0  0  0  0  0  0  0  0  0  0  0  0
    2.4474    0.7623    0.0000 C   0  0  0  0  0  0  0  0  0  0  0  0
    4.6459   -0.9056    0.0000 C   0  0  0  0  0  0  0  0  0  0  0  0
    5.1309   -0.2382    0.0000 C   0  0  0  0  0  0  0  0  0  0  0  0
    1.6500    0.5504    0.0000 C   0  0  0  0  0  0  0  0  0  0  0  0
    4.9009   -1.6903    0.0000 C   0  0  0  0  0  0  0  0  0  0  0  0
    6.3684    0.4763    0.0000 C   0  0  0  0  0  0  0  0  0  0  0  0
    7.1934    0.4763    0.0000 C   0  0  0  0  0  0  0  0  0  0  0  0
    8.4309    1.1908    0.0000 C   0  0  0  0  0  0  0  0  0  0  0  0
  1 15  1  0
  1 18  1  0
 13  2  1  0
  3 12  2  0
  4 17  1  0
  5 17  2  0
  6  9  1  0
  6 12  1  0
  6 14  1  0
  7 19  1  0
  7 20  2  0
  8 20  1  0
  9 10  1  0
  9 11  1  1
 10 12  1  6
 10 13  1  0
 11 15  1  0
 13 16  1  1
 14 15  2  0
 14 17  1  0
 18 19  1  0
M  END
$$$$
