1016
     RDKit          2D

 33 35  0  0  0  0  0  0  0  0999 V2000
    5.2224   -5.5689    0.0000 Cl  0  0  0  0  0  0  0  0  0  0  0  0
    5.2224    1.8563    0.0000 S   0  0  0  0  0  0  0  0  0  0  0  0
    6.6515    2.6813    0.0000 O   0  0  0  0  0  0  0  0  0  0  0  0
    4.3974    1.8563    0.0000 O   0  0  0  0  0  0  0  0  0  0  0  0
    6.0475    1.8563    0.0000 O   0  0  0  0  0  0  0  0  0  0  0  0
    3.0791   -2.6813    0.0000 O   0  0  0  0  0  0  0  0  0  0  0  0
    2.3645   -3.9188    0.0000 O   0  0  0  0  0  0  0  0  0  0  0  0
    5.9370    3.9188    0.0000 N   0  0  0  0  0  0  0  0  0  0  0  0
    5.2224    2.6813    0.0000 N   0  0  0  0  0  0  0  0  0  0  0  0
    4.5080   -2.6813    0.0000 N   0  0  0  0  0  0  0  0  0  0  0  0
    6.6515    4.3313    0.0000 C   0  0  0  0  0  0  0  0  0  0  0  0
    7.3659    3.9188    0.0000 C   0  0  0  0  0  0  0  0  0  0  0  0
    6.6515    5.1564    0.0000 C   0  0  0  0  0  0  0  0  0  0  0  0
    8.0804    4.3313    0.0000 C   0  0  0  0  0  0  0  0  0  0  0  0
    7.3659    5.5689    0.0000 C   0  0  0  0  0  0  0  0  0  0  0  0
    8.0804    5.1564    0.0000 C   0  0  0  0  0  0  0  0  0  0  0  0
    5.9370    3.0938    0.0000 C   0  0  0  0  0  0  0  0  0  0  0  0
    5.2224    1.0313    0.0000 C   0  0  0  0  0  0  0  0  0  0  0  0
    5.2224   -0.6188    0.0000 C   0  0  0  0  0  0  0  0  0  0  0  0
    5.2224   -1.4438    0.0000 C   0  0  0  0  0  0  0  0  0  0  0  0
    4.5080    0.6188    0.0000 C   0  0  0  0  0  0  0  0  0  0  0  0
    5.9370    0.6188    0.0000 C   0  0  0  0  0  0  0  0  0  0  0  0
    4.5080   -0.2063    0.0000 C   0  0  0  0  0  0  0  0  0  0  0  0
    5.9370   -0.2063    0.0000 C   0  0  0  0  0  0  0  0  0  0  0  0
    4.5080   -1.8563    0.0000 C   0  0  0  0  0  0  0  0  0  0  0  0
    3.7935   -3.0938    0.0000 C   0  0  0  0  0  0  0  0  0  0  0  0
    3.7935   -3.9188    0.0000 C   0  0  0  0  0  0  0  0  0  0  0  0
    3.0791   -4.3313    0.0000 C   0  0  0  0  0  0  0  0  0  0  0  0
    4.5080   -4.3313    0.0000 C   0  0  0  0  0  0  0  0  0  0  0  0
    3.0791   -5.1564    0.0000 C   0  0  0  0  0  0  0  0  0  0  0  0
    4.5080   -5.1564    0.0000 C   0  0  0  0  0  0  0  0  0  0  0  0
    3.7935   -5.5689    0.0000 C   0  0  0  0  0  0  0  0  0  0  0  0
    1.6500   -4.3313    0.0000 C   0  0  0  0  0  0  0  0  0  0  0  0
  1 31  1  0
  2  4  2  0
  2  5  2  0
  2  9  1  0
  2 18  1  0
  3 17  2  0
  6 26  2  0
  7 28  1  0
  7 33  1  0
  8 11  1  0
  8 17  1  0
  9 17  1  0
 10 25  1  0
 10 26  1  0
 11 12  1  0
 11 13  1  0
 12 14  1  0
 13 15  1  0
 14 16  1  0
 15 16  1  0
 18 21  2  0
 18 22  1  0
 19 20  1  0
 19 23  2  0
 19 24  1  0
 20 25  1  0
 21 23  1  0
 22 24  2  0
 26 27  1  0
 27 28  2  0
 27 29  1  0
 28 30  1  0
 29 31  2  0
 30 32  2  0
 31 32  1  0
M  END
$$$$
