1184
     RDKit          2D

 30 34  0  0  0  0  0  0  0  0999 V2000
    1.6500   -3.7973    0.0000 Cl  0  0  0  0  0  0  0  0  0  0  0  0
    5.8806   -2.9723    0.0000 O   0  0  0  0  0  0  0  0  0  0  0  0
    7.9892    0.5823    0.0000 O   0  0  0  0  0  0  0  0  0  0  0  0
    5.3431    0.0442    0.0000 N   0  0  0  0  0  0  0  0  0  0  0  0
    4.5741   -2.3084    0.0000 N   0  0  0  0  0  0  0  0  0  0  0  0
    4.5741   -3.6362    0.0000 N   0  0  0  0  0  0  0  0  0  0  0  0
    7.4702    1.9529    0.0000 N   0  0  0  0  0  0  0  0  0  0  0  0
    8.7903    1.8095    0.0000 N   0  0  0  0  0  0  0  0  0  0  0  0
    4.8305   -1.5242    0.0000 C   0  0  0  0  0  0  0  0  0  0  0  0
    4.2795   -0.9102    0.0000 C   0  0  0  0  0  0  0  0  0  0  0  0
    5.6378   -1.3540    0.0000 C   0  0  0  0  0  0  0  0  0  0  0  0
    4.5358   -0.1259    0.0000 C   0  0  0  0  0  0  0  0  0  0  0  0
    5.8940   -0.5698    0.0000 C   0  0  0  0  0  0  0  0  0  0  0  0
    5.5993    0.8284    0.0000 C   0  0  0  0  0  0  0  0  0  0  0  0
    6.4067    0.9985    0.0000 C   0  0  0  0  0  0  0  0  0  0  0  0
    3.7935   -2.5598    0.0000 C   0  0  0  0  0  0  0  0  0  0  0  0
    5.0556   -2.9723    0.0000 C   0  0  0  0  0  0  0  0  0  0  0  0
    6.6629    1.7827    0.0000 C   0  0  0  0  0  0  0  0  0  0  0  0
    3.7935   -3.3848    0.0000 C   0  0  0  0  0  0  0  0  0  0  0  0
    3.0791   -2.1473    0.0000 C   0  0  0  0  0  0  0  0  0  0  0  0
    3.0791   -3.7973    0.0000 C   0  0  0  0  0  0  0  0  0  0  0  0
    7.8044    2.7018    0.0000 C   0  0  0  0  0  0  0  0  0  0  0  0
    2.3645   -2.5598    0.0000 C   0  0  0  0  0  0  0  0  0  0  0  0
    8.0782    1.4025    0.0000 C   0  0  0  0  0  0  0  0  0  0  0  0
    8.6247    2.6127    0.0000 C   0  0  0  0  0  0  0  0  0  0  0  0
    2.3645   -3.3848    0.0000 C   0  0  0  0  0  0  0  0  0  0  0  0
    7.4715    3.4567    0.0000 C   0  0  0  0  0  0  0  0  0  0  0  0
    9.1119    3.2785    0.0000 C   0  0  0  0  0  0  0  0  0  0  0  0
    7.9587    4.1225    0.0000 C   0  0  0  0  0  0  0  0  0  0  0  0
    8.7789    4.0333    0.0000 C   0  0  0  0  0  0  0  0  0  0  0  0
  1 26  1  0
  2 17  2  0
  3 24  2  0
  4 12  1  0
  4 13  1  0
  4 14  1  0
  5  9  1  0
  5 16  1  0
  5 17  1  0
  6 17  1  0
  6 19  1  0
  7 18  1  0
  7 22  1  0
  7 24  1  0
  8 24  1  0
  8 25  1  0
  9 10  1  0
  9 11  1  0
 10 12  1  0
 11 13  1  0
 14 15  1  0
 15 18  1  0
 16 19  2  0
 16 20  1  0
 19 21  1  0
 20 23  2  0
 21 26  2  0
 22 25  2  0
 22 27  1  0
 23 26  1  0
 25 28  1  0
 27 29  2  0
 28 30  2  0
 29 30  1  0
M  END
$$$$
