1107
     RDKit          2D

 13 13  0  0  1  0  0  0  0  0999 V2000
    1.6500    0.1106    0.0000 O   0  0  0  0  0  0  0  0  0  0  0  0
    4.5080    0.1106    0.0000 O   0  0  0  0  0  0  0  0  0  0  0  0
    3.7935   -1.1270    0.0000 N   0  0  0  0  0  0  0  0  0  0  0  0
    3.0791    0.1106    0.0000 C   0  0  0  0  0  0  0  0  0  0  0  0
    2.3645   -1.1270    0.0000 C   0  0  0  0  0  0  0  0  0  0  0  0
    2.3645   -0.3020    0.0000 C   0  0  0  0  0  0  0  0  0  0  0  0
    2.6665    0.8250    0.0000 C   0  0  0  0  0  0  0  0  0  0  0  0
    3.4916    0.8250    0.0000 C   0  0  0  0  0  0  0  0  0  0  0  0
    3.7935   -0.3020    0.0000 C   0  0  0  0  0  0  0  0  0  0  0  0
    3.0791   -1.5395    0.0000 C   0  0  0  0  0  0  0  0  0  0  0  0
    1.6500   -1.5395    0.0000 C   0  0  0  0  0  0  0  0  0  0  0  0
    1.8415    0.8250    0.0000 C   0  0  0  0  0  0  0  0  0  0  0  0
    3.0791    1.5395    0.0000 C   0  0  0  0  0  0  0  0  0  0  0  0
  1  6  2  0
  2  9  2  0
  3  9  1  0
  3 10  1  0
  4  6  1  0
  4  7  1  0
  4  8  1  0
  4  9  1  0
  5  6  1  0
  5 10  1  0
  5 11  1  0
  7 12  1  0
  8 13  1  0
M  END
$$$$
