
     RDKit          2D

 39 44  0  0  0  0  0  0  0  0999 V2000
    2.7964    1.4189    0.0000 C   0  0  0  0  0  0  0  0  0  0  0  0
    2.7964    0.5932    0.0000 C   0  0  0  0  0  0  0  0  0  0  0  0
    3.5100    0.1803    0.0000 C   0  0  0  0  0  0  0  0  0  0  0  0
    4.2234    0.5932    0.0000 C   0  0  0  0  0  0  0  0  0  0  0  0
    4.2234    1.4189    0.0000 C   0  0  0  0  0  0  0  0  0  0  0  0
    3.5100    1.8318    0.0000 C   0  0  0  0  0  0  0  0  0  0  0  0
   -3.5081   -1.7624    0.0000 C   0  0  0  0  0  0  0  0  0  0  0  0
   -3.5081   -2.5881    0.0000 C   0  0  0  0  0  0  0  0  0  0  0  0
   -2.7947   -3.0009    0.0000 C   0  0  0  0  0  0  0  0  0  0  0  0
   -2.7947   -1.3497    0.0000 C   0  0  0  0  0  0  0  0  0  0  0  0
   -2.0813   -1.7624    0.0000 C   0  0  0  0  0  0  0  0  0  0  0  0
   -2.0848   -2.5881    0.0000 C   0  0  0  0  0  0  0  0  0  0  0  0
   -1.3752   -3.0016    0.0000 C   0  0  0  0  0  0  0  0  0  0  0  0
   -0.6579   -2.5942    0.0000 C   0  0  0  0  0  0  0  0  0  0  0  0
   -1.3683   -1.3504    0.0000 C   0  0  0  0  0  0  0  0  0  0  0  0
   -0.6567   -1.7699    0.0000 C   0  0  0  0  0  0  0  0  0  0  0  0
   -0.6430   -0.1204    0.0000 C   0  0  0  0  0  0  0  0  0  0  0  0
   -1.3647   -0.5263    0.0000 C   0  0  0  0  0  0  0  0  0  0  0  0
    0.0685   -0.5401    0.0000 C   0  0  0  0  0  0  0  0  0  0  0  0
    0.0600   -1.3640    0.0000 C   0  0  0  0  0  0  0  0  0  0  0  0
    0.8411   -1.6267    0.0000 C   0  0  0  0  0  0  0  0  0  0  0  0
    0.8547   -0.2936    0.0000 C   0  0  0  0  0  0  0  0  0  0  0  0
    1.3338   -0.9608    0.0000 C   0  0  0  0  0  0  0  0  0  0  0  0
    2.1165   -0.7112    0.0000 O   0  0  0  0  0  0  0  0  0  0  0  0
    2.1210    0.1100    0.0000 C   0  0  0  0  0  0  0  0  0  0  0  0
    1.3413    0.3681    0.0000 O   0  0  0  0  0  0  0  0  0  0  0  0
   -4.2234   -3.0006    0.0000 O   0  0  0  0  0  0  0  0  0  0  0  0
   -2.0897   -0.9367    0.0000 C   0  0  0  0  0  0  0  0  0  0  0  0
   -2.0766   -0.1080    0.0000 O   0  0  0  0  0  0  0  0  0  0  0  0
    0.0618    0.2872    0.0000 C   0  0  0  0  0  0  0  0  0  0  0  0
    0.8487    0.5349    0.0000 C   0  0  0  0  0  0  0  0  0  0  0  0
    1.5608    0.9530    0.0000 O   0  0  0  0  0  0  0  0  0  0  0  0
    0.1307    0.9426    0.0000 C   0  0  0  0  0  0  0  0  0  0  0  0
    0.1245    1.7683    0.0000 O   0  0  0  0  0  0  0  0  0  0  0  0
   -0.5935    2.1759    0.0000 C   0  0  0  0  0  0  0  0  0  0  0  0
   -0.5994    3.0016    0.0000 O   0  0  0  0  0  0  0  0  0  0  0  0
   -1.3055    1.7578    0.0000 C   0  0  0  0  0  0  0  0  0  0  0  0
   -2.0235    2.1654    0.0000 C   0  0  0  0  0  0  0  0  0  0  0  0
   -1.2994    0.9321    0.0000 C   0  0  0  0  0  0  0  0  0  0  0  0
  9 12  2  0
 20 21  1  1
 23 21  1  6
 22 19  1  0
 22 23  1  0
 11 10  1  0
 11 12  1  0
  3  4  1  0
  4  5  1  0
  5  6  1  0
 23 24  1  0
 24 25  1  0
 25 26  1  0
 26 22  1  0
 25  2  1  6
  7  8  1  0
  8 27  2  0
 11 15  1  0
 12 13  1  0
 13 14  1  0
 16 14  1  6
 11 28  1  1
 15 16  1  0
 18 29  1  1
  1  2  1  0
 19 30  1  1
  1  6  1  0
 22 31  1  1
  2  3  1  0
 31 32  2  0
 15 18  1  1
 31 33  1  0
 16 20  1  0
 33 34  1  0
 19 17  1  0
 34 35  1  0
 17 18  1  0
 35 36  2  0
 19 20  1  0
 35 37  1  0
  7 10  2  0
 37 38  1  0
  8  9  1  0
 37 39  1  0
M  END
$$$$
