1265
     RDKit          2D

 17 18  0  0  1  0  0  0  0  0999 V2000
    3.7462   -1.0025    0.0000 O   0  0  0  0  0  0  0  0  0  0  0  0
    2.1814   -2.4546    0.0000 O   0  0  0  0  0  0  0  0  0  0  0  0
    4.7966   -2.3683    0.0000 O   0  0  0  0  0  0  0  0  0  0  0  0
    1.6499    0.3073    0.0000 O   0  0  0  0  0  0  0  0  0  0  0  0
    3.0789    2.7822    0.0000 O   0  0  0  0  0  0  0  0  0  0  0  0
    3.0789    0.3073    0.0000 N   0  0  0  0  0  0  0  0  0  0  0  0
    2.3643    1.5447    0.0000 N   0  0  0  0  0  0  0  0  0  0  0  0
    2.6663   -1.7872    0.0000 C   0  0  0  0  0  0  0  0  0  0  0  0
    3.0789   -0.5177    0.0000 C   0  0  0  0  0  0  0  0  0  0  0  0
    2.4113   -1.0025    0.0000 C   0  0  0  0  0  0  0  0  0  0  0  0
    3.4913   -1.7872    0.0000 C   0  0  0  0  0  0  0  0  0  0  0  0
    3.9761   -2.4546    0.0000 C   0  0  0  0  0  0  0  0  0  0  0  0
    3.7932    0.7197    0.0000 C   0  0  0  0  0  0  0  0  0  0  0  0
    2.3643    0.7197    0.0000 C   0  0  0  0  0  0  0  0  0  0  0  0
    3.7932    1.5447    0.0000 C   0  0  0  0  0  0  0  0  0  0  0  0
    3.0789    1.9573    0.0000 C   0  0  0  0  0  0  0  0  0  0  0  0
    4.5077    1.9573    0.0000 C   0  0  0  0  0  0  0  0  0  0  0  0
  1  9  1  0
  1 11  1  0
  8  2  1  6
  3 12  1  0
  4 14  2  0
  5 16  2  0
  9  6  1  1
  6 13  1  0
  6 14  1  0
  7 14  1  0
  7 16  1  0
  8 10  1  0
  8 11  1  0
  9 10  1  0
 11 12  1  1
 13 15  2  0
 15 16  1  0
 15 17  1  0
M  END
$$$$
