1182
     RDKit          2D

 25 26  0  0  1  0  0  0  0  0999 V2000
    6.6515   -1.0313    0.0000 O   0  0  0  0  0  0  0  0  0  0  0  0
    5.2224   -0.2063    0.0000 O   0  0  0  0  0  0  0  0  0  0  0  0
    7.3659    0.2063    0.0000 O   0  0  0  0  0  0  0  0  0  0  0  0
    3.7935   -1.0313    0.0000 N   0  0  0  0  0  0  0  0  0  0  0  0
    5.2224   -1.0313    0.0000 C   0  0  0  0  0  0  0  0  0  0  0  0
    4.5080   -1.4438    0.0000 C   0  0  0  0  0  0  0  0  0  0  0  0
    5.9370   -1.4438    0.0000 C   0  0  0  0  0  0  0  0  0  0  0  0
    3.0791   -1.4438    0.0000 C   0  0  0  0  0  0  0  0  0  0  0  0
    8.7949    0.2063    0.0000 C   0  0  0  0  0  0  0  0  0  0  0  0
    8.7949    1.0313    0.0000 C   0  0  0  0  0  0  0  0  0  0  0  0
    2.3645   -1.0313    0.0000 C   0  0  0  0  0  0  0  0  0  0  0  0
    8.0804   -1.0313    0.0000 C   0  0  0  0  0  0  0  0  0  0  0  0
    7.3659   -1.4438    0.0000 C   0  0  0  0  0  0  0  0  0  0  0  0
    8.0804   -0.2063    0.0000 C   0  0  0  0  0  0  0  0  0  0  0  0
    9.5094    1.4438    0.0000 C   0  0  0  0  0  0  0  0  0  0  0  0
    8.7949   -1.4438    0.0000 C   0  0  0  0  0  0  0  0  0  0  0  0
    7.3659   -2.2688    0.0000 C   0  0  0  0  0  0  0  0  0  0  0  0
    1.6500   -1.4438    0.0000 C   0  0  0  0  0  0  0  0  0  0  0  0
    8.7949   -2.2688    0.0000 C   0  0  0  0  0  0  0  0  0  0  0  0
    9.5094    2.2688    0.0000 C   0  0  0  0  0  0  0  0  0  0  0  0
   10.2239    1.0313    0.0000 C   0  0  0  0  0  0  0  0  0  0  0  0
    8.0804   -2.6813    0.0000 C   0  0  0  0  0  0  0  0  0  0  0  0
   10.2239    2.6813    0.0000 C   0  0  0  0  0  0  0  0  0  0  0  0
   10.9383    1.4438    0.0000 C   0  0  0  0  0  0  0  0  0  0  0  0
   10.9383    2.2688    0.0000 C   0  0  0  0  0  0  0  0  0  0  0  0
  1  7  1  0
  1 13  1  0
  2  5  1  0
  3 14  2  0
  4  6  1  0
  4  8  1  0
  5  6  1  0
  5  7  1  0
  8 11  1  0
  9 10  1  0
  9 14  1  0
 10 15  1  0
 11 18  1  0
 12 13  2  0
 12 14  1  0
 12 16  1  0
 13 17  1  0
 15 20  2  0
 15 21  1  0
 16 19  2  0
 17 22  2  0
 19 22  1  0
 20 23  1  0
 21 24  2  0
 23 25  2  0
 24 25  1  0
M  END
$$$$
