
     RDKit          2D

 41 44  0  0  1  0  0  0  0  0999 V2000
   16.6846  -18.7035    0.0000 F   0  0  0  0  0  0  0  0  0  0  0  0
   13.6633  -15.6834    0.0000 O   0  0  0  0  0  0  0  0  0  0  0  0
   12.2654  -15.3862    0.0000 O   0  0  0  0  0  0  0  0  0  0  0  0
   10.4262  -13.7302    0.0000 O   0  0  0  0  0  0  0  0  0  0  0  0
   10.8678  -15.0891    0.0000 O   0  0  0  0  0  0  0  0  0  0  0  0
   18.4024  -13.5528    0.0000 O   0  0  0  0  0  0  0  0  0  0  0  0
   17.2464  -12.7127    0.0000 N   0  0  0  0  0  0  0  0  0  0  0  0
   16.0170  -14.9185    0.0000 N   0  0  0  0  0  0  0  0  0  0  0  0
   13.8347  -14.8763    0.0000 C   0  0  0  0  0  0  0  0  0  0  0  0
   12.4370  -14.5793    0.0000 C   0  0  0  0  0  0  0  0  0  0  0  0
   15.7871  -13.4664    0.0000 C   0  0  0  0  0  0  0  0  0  0  0  0
   15.2326  -15.1734    0.0000 C   0  0  0  0  0  0  0  0  0  0  0  0
   13.2216  -14.3243    0.0000 C   0  0  0  0  0  0  0  0  0  0  0  0
   14.6194  -14.6214    0.0000 C   0  0  0  0  0  0  0  0  0  0  0  0
   11.8239  -14.0272    0.0000 C   0  0  0  0  0  0  0  0  0  0  0  0
   16.1228  -12.7127    0.0000 C   0  0  0  0  0  0  0  0  0  0  0  0
   14.9666  -13.5528    0.0000 C   0  0  0  0  0  0  0  0  0  0  0  0
   11.0392  -14.2820    0.0000 C   0  0  0  0  0  0  0  0  0  0  0  0
   17.5819  -13.4664    0.0000 C   0  0  0  0  0  0  0  0  0  0  0  0
   16.2721  -14.1339    0.0000 C   0  0  0  0  0  0  0  0  0  0  0  0
   16.6846  -15.4035    0.0000 C   0  0  0  0  0  0  0  0  0  0  0  0
   16.6846  -17.8785    0.0000 C   0  0  0  0  0  0  0  0  0  0  0  0
   17.7313  -12.0454    0.0000 C   0  0  0  0  0  0  0  0  0  0  0  0
   17.0971  -14.1339    0.0000 C   0  0  0  0  0  0  0  0  0  0  0  0
   17.3520  -14.9185    0.0000 C   0  0  0  0  0  0  0  0  0  0  0  0
   16.6846  -16.2284    0.0000 C   0  0  0  0  0  0  0  0  0  0  0  0
   18.1367  -15.1734    0.0000 C   0  0  0  0  0  0  0  0  0  0  0  0
   15.9700  -17.4659    0.0000 C   0  0  0  0  0  0  0  0  0  0  0  0
   17.3989  -17.4659    0.0000 C   0  0  0  0  0  0  0  0  0  0  0  0
   18.5518  -12.1316    0.0000 C   0  0  0  0  0  0  0  0  0  0  0  0
   17.3958  -11.2916    0.0000 C   0  0  0  0  0  0  0  0  0  0  0  0
   15.9700  -16.6410    0.0000 C   0  0  0  0  0  0  0  0  0  0  0  0
   17.3989  -16.6410    0.0000 C   0  0  0  0  0  0  0  0  0  0  0  0
   18.7497  -14.6214    0.0000 C   0  0  0  0  0  0  0  0  0  0  0  0
   18.3081  -15.9803    0.0000 C   0  0  0  0  0  0  0  0  0  0  0  0
   19.0367  -11.4640    0.0000 C   0  0  0  0  0  0  0  0  0  0  0  0
   17.8807  -10.6242    0.0000 C   0  0  0  0  0  0  0  0  0  0  0  0
   19.0928  -16.2354    0.0000 C   0  0  0  0  0  0  0  0  0  0  0  0
   19.5343  -14.8763    0.0000 C   0  0  0  0  0  0  0  0  0  0  0  0
   18.7012  -10.7104    0.0000 C   0  0  0  0  0  0  0  0  0  0  0  0
   19.7059  -15.6834    0.0000 C   0  0  0  0  0  0  0  0  0  0  0  0
  1 22  1  0
  9  2  1  1
 10  3  1  1
  4 18  1  0
  5 18  2  0
  6 19  2  0
  7 19  1  0
  7 23  1  0
  8 12  1  0
  8 20  1  0
  8 21  1  0
  9 13  1  0
  9 14  1  0
 10 13  1  0
 10 15  1  0
 11 16  1  0
 11 17  1  0
 11 20  1  0
 12 14  1  0
 15 18  1  0
 19 24  1  0
 20 24  2  0
 21 25  2  0
 21 26  1  0
 22 28  2  0
 22 29  1  0
 23 30  2  0
 23 31  1  0
 24 25  1  0
 25 27  1  0
 26 32  2  0
 26 33  1  0
 27 34  2  0
 27 35  1  0
 28 32  1  0
 29 33  2  0
 30 36  1  0
 31 37  2  0
 34 39  1  0
 35 38  2  0
 36 40  2  0
 37 40  1  0
 38 41  1  0
 39 41  2  0
M  END
$$$$
