1603
     RDKit          2D

 26 28  0  0  1  0  0  0  0  0999 V2000
    7.0379    0.3543    0.0000 S   0  0  0  0  0  0  0  0  0  0  0  0
    4.8393   -1.3137    0.0000 O   0  0  0  0  0  0  0  0  0  0  0  0
    6.7409   -2.3783    0.0000 O   0  0  0  0  0  0  0  0  0  0  0  0
    8.0999   -1.9368    0.0000 O   0  0  0  0  0  0  0  0  0  0  0  0
    3.8269   -0.3210    0.0000 O   0  0  0  0  0  0  0  0  0  0  0  0
    2.4474    0.0516    0.0000 O   0  0  0  0  0  0  0  0  0  0  0  0
    4.4723    2.0684    0.0000 O   0  0  0  0  0  0  0  0  0  0  0  0
    6.2534   -0.7257    0.0000 N   0  0  0  0  0  0  0  0  0  0  0  0
    4.8393    0.6873    0.0000 N   0  0  0  0  0  0  0  0  0  0  0  0
    6.2534    0.0993    0.0000 C   0  0  0  0  0  0  0  0  0  0  0  0
    7.5229   -0.3132    0.0000 C   0  0  0  0  0  0  0  0  0  0  0  0
    7.0379   -0.9806    0.0000 C   0  0  0  0  0  0  0  0  0  0  0  0
    5.4215    0.1028    0.0000 C   0  0  0  0  0  0  0  0  0  0  0  0
    5.4215   -0.7291    0.0000 C   0  0  0  0  0  0  0  0  0  0  0  0
    8.1903   -0.7981    0.0000 C   0  0  0  0  0  0  0  0  0  0  0  0
    8.1903    0.1718    0.0000 C   0  0  0  0  0  0  0  0  0  0  0  0
    7.2929   -1.7653    0.0000 C   0  0  0  0  0  0  0  0  0  0  0  0
    4.0420    0.4754    0.0000 C   0  0  0  0  0  0  0  0  0  0  0  0
    3.4598    1.0600    0.0000 C   0  0  0  0  0  0  0  0  0  0  0  0
    2.6625    0.8481    0.0000 C   0  0  0  0  0  0  0  0  0  0  0  0
    3.6750    1.8564    0.0000 C   0  0  0  0  0  0  0  0  0  0  0  0
    2.0803    1.4327    0.0000 C   0  0  0  0  0  0  0  0  0  0  0  0
    3.0929    2.4410    0.0000 C   0  0  0  0  0  0  0  0  0  0  0  0
    2.2955    2.2292    0.0000 C   0  0  0  0  0  0  0  0  0  0  0  0
    1.6500   -0.1602    0.0000 C   0  0  0  0  0  0  0  0  0  0  0  0
    4.6875    2.8648    0.0000 C   0  0  0  0  0  0  0  0  0  0  0  0
 10  1  1  1
  1 11  1  0
  2 14  2  0
  3 17  1  0
  4 17  2  0
  5 18  2  0
  6 20  1  0
  6 25  1  0
  7 21  1  0
  7 26  1  0
  8 10  1  0
  8 12  1  0
  8 14  1  0
 13  9  1  1
  9 18  1  0
 10 13  1  0
 11 12  1  0
 11 15  1  0
 11 16  1  0
 12 17  1  6
 13 14  1  0
 18 19  1  0
 19 20  2  0
 19 21  1  0
 20 22  1  0
 21 23  2  0
 22 24  2  0
 23 24  1  0
M  END
$$$$
