1091
     RDKit          2D

 24 26  0  0  1  0  0  0  0  0999 V2000
    5.2224    0.1367    0.0000 N   0  0  0  0  0  0  0  0  0  0  0  0
    2.3645   -2.3383    0.0000 C   0  0  0  0  0  0  0  0  0  0  0  0
    3.0791   -1.9258    0.0000 C   0  0  0  0  0  0  0  0  0  0  0  0
    1.6500   -2.7509    0.0000 C   0  0  0  0  0  0  0  0  0  0  0  0
    2.7770   -3.0528    0.0000 C   0  0  0  0  0  0  0  0  0  0  0  0
    1.9520   -1.6239    0.0000 C   0  0  0  0  0  0  0  0  0  0  0  0
    5.2224   -0.6883    0.0000 C   0  0  0  0  0  0  0  0  0  0  0  0
    4.5080   -1.1008    0.0000 C   0  0  0  0  0  0  0  0  0  0  0  0
    3.7935   -2.3383    0.0000 C   0  0  0  0  0  0  0  0  0  0  0  0
    3.0791   -1.1008    0.0000 C   0  0  0  0  0  0  0  0  0  0  0  0
    5.9370    0.5492    0.0000 C   0  0  0  0  0  0  0  0  0  0  0  0
    4.5080   -1.9258    0.0000 C   0  0  0  0  0  0  0  0  0  0  0  0
    3.7935   -0.6883    0.0000 C   0  0  0  0  0  0  0  0  0  0  0  0
    5.9370    1.3742    0.0000 C   0  0  0  0  0  0  0  0  0  0  0  0
    6.6515    1.7867    0.0000 C   0  0  0  0  0  0  0  0  0  0  0  0
    4.5080    0.5492    0.0000 C   0  0  0  0  0  0  0  0  0  0  0  0
    6.6515    2.6118    0.0000 C   0  0  0  0  0  0  0  0  0  0  0  0
    5.2224    1.7867    0.0000 C   0  0  0  0  0  0  0  0  0  0  0  0
    7.3889    1.3456    0.0000 C   0  0  0  0  0  0  0  0  0  0  0  0
    5.9370    3.0243    0.0000 C   0  0  0  0  0  0  0  0  0  0  0  0
    5.2224    2.6118    0.0000 C   0  0  0  0  0  0  0  0  0  0  0  0
    7.3889    3.0528    0.0000 C   0  0  0  0  0  0  0  0  0  0  0  0
    8.1365    1.7696    0.0000 C   0  0  0  0  0  0  0  0  0  0  0  0
    8.1365    2.6289    0.0000 C   0  0  0  0  0  0  0  0  0  0  0  0
  1  7  1  0
  1 11  1  0
  1 16  1  0
  2  3  1  0
  2  4  1  0
  2  5  1  0
  2  6  1  0
  3  9  2  0
  3 10  1  0
  7  8  1  0
  8 12  2  0
  8 13  1  0
  9 12  1  0
 10 13  2  0
 11 14  1  0
 14 15  1  0
 14 18  2  0
 15 17  2  0
 15 19  1  0
 17 20  1  0
 17 22  1  0
 18 21  1  0
 19 23  2  0
 20 21  2  0
 22 24  2  0
 23 24  1  0
M  END
$$$$
