1558
     RDKit          2D

 19 21  0  0  0  0  0  0  0  0999 V2000
    2.5467   -2.3593    0.0000 Br  0  0  0  0  0  0  0  0  0  0  0  0
    2.3403    2.3593    0.0000 O   0  0  0  0  0  0  0  0  0  0  0  0
    2.1839    0.9709    0.0000 N   0  0  0  0  0  0  0  0  0  0  0  0
    4.0375    0.9709    0.0000 N   0  0  0  0  0  0  0  0  0  0  0  0
    5.2670   -0.0464    0.0000 N   0  0  0  0  0  0  0  0  0  0  0  0
    3.1107   -0.1914    0.0000 C   0  0  0  0  0  0  0  0  0  0  0  0
    2.3674    0.1666    0.0000 C   0  0  0  0  0  0  0  0  0  0  0  0
    3.8540    0.1666    0.0000 C   0  0  0  0  0  0  0  0  0  0  0  0
    3.1881   -1.0473    0.0000 C   0  0  0  0  0  0  0  0  0  0  0  0
    3.5232    1.6159    0.0000 C   0  0  0  0  0  0  0  0  0  0  0  0
    4.4990   -0.3478    0.0000 C   0  0  0  0  0  0  0  0  0  0  0  0
    1.6500   -0.3065    0.0000 C   0  0  0  0  0  0  0  0  0  0  0  0
    2.6982    1.6159    0.0000 C   0  0  0  0  0  0  0  0  0  0  0  0
    2.4818   -1.5367    0.0000 C   0  0  0  0  0  0  0  0  0  0  0  0
    1.7076   -1.1639    0.0000 C   0  0  0  0  0  0  0  0  0  0  0  0
    4.3760   -1.1636    0.0000 C   0  0  0  0  0  0  0  0  0  0  0  0
    5.0210   -1.6780    0.0000 C   0  0  0  0  0  0  0  0  0  0  0  0
    5.9120   -0.5608    0.0000 C   0  0  0  0  0  0  0  0  0  0  0  0
    5.7890   -1.3765    0.0000 C   0  0  0  0  0  0  0  0  0  0  0  0
  1 14  1  0
  2 13  2  0
  3  7  1  0
  3 13  1  0
  4  8  2  0
  4 10  1  0
  5 11  2  0
  5 18  1  0
  6  7  2  0
  6  8  1  0
  6  9  1  0
  7 12  1  0
  8 11  1  0
  9 14  2  0
 10 13  1  0
 11 16  1  0
 12 15  2  0
 14 15  1  0
 16 17  2  0
 17 19  1  0
 18 19  2  0
M  END
$$$$
