1367
     RDKit          2D

 13 14  0  0  1  0  0  0  0  0999 V2000
    4.1159    0.0242    0.0000 N   0  0  0  0  0  0  0  0  0  0  0  0
    3.8597   -0.7600    0.0000 C   0  0  0  0  0  0  0  0  0  0  0  0
    4.3412   -1.4239    0.0000 C   0  0  0  0  0  0  0  0  0  0  0  0
    3.8597   -2.0878    0.0000 C   0  0  0  0  0  0  0  0  0  0  0  0
    3.0791   -1.0114    0.0000 C   0  0  0  0  0  0  0  0  0  0  0  0
    3.0791   -1.8364    0.0000 C   0  0  0  0  0  0  0  0  0  0  0  0
    2.3645   -0.5989    0.0000 C   0  0  0  0  0  0  0  0  0  0  0  0
    2.3645   -2.2489    0.0000 C   0  0  0  0  0  0  0  0  0  0  0  0
    4.9232    0.1944    0.0000 C   0  0  0  0  0  0  0  0  0  0  0  0
    1.6500   -1.0114    0.0000 C   0  0  0  0  0  0  0  0  0  0  0  0
    1.6500   -1.8364    0.0000 C   0  0  0  0  0  0  0  0  0  0  0  0
    5.1795    0.9786    0.0000 C   0  0  0  0  0  0  0  0  0  0  0  0
    5.4359    1.7627    0.0000 C   0  0  0  0  0  0  0  0  0  0  0  0
  2  1  1  6
  1  9  1  0
  2  3  1  0
  2  5  1  0
  3  4  1  0
  4  6  1  0
  5  6  2  0
  5  7  1  0
  6  8  1  0
  7 10  2  0
  8 11  2  0
  9 12  1  0
 10 11  1  0
 12 13  3  0
M  END
$$$$
