1009
     RDKit          2D

 19 20  0  0  1  0  0  0  0  0999 V2000
    1.6500   -2.4256    0.0000 O   0  0  0  0  0  0  0  0  0  0  0  0
    3.0791    1.6995    0.0000 O   0  0  0  0  0  0  0  0  0  0  0  0
    3.0791   -2.4256    0.0000 O   0  0  0  0  0  0  0  0  0  0  0  0
    2.3645   -1.1880    0.0000 C   0  0  0  0  0  0  0  0  0  0  0  0
    3.0791   -0.7755    0.0000 C   0  0  0  0  0  0  0  0  0  0  0  0
    3.0791    0.0495    0.0000 C   0  0  0  0  0  0  0  0  0  0  0  0
    3.7935    0.4620    0.0000 C   0  0  0  0  0  0  0  0  0  0  0  0
    3.7935   -1.1880    0.0000 C   0  0  0  0  0  0  0  0  0  0  0  0
    1.6500   -0.7755    0.0000 C   0  0  0  0  0  0  0  0  0  0  0  0
    4.5080    0.0495    0.0000 C   0  0  0  0  0  0  0  0  0  0  0  0
    4.5080   -0.7755    0.0000 C   0  0  0  0  0  0  0  0  0  0  0  0
    3.7935    1.2870    0.0000 C   0  0  0  0  0  0  0  0  0  0  0  0
    2.3645   -2.0130    0.0000 C   0  0  0  0  0  0  0  0  0  0  0  0
    4.5080    1.6995    0.0000 C   0  0  0  0  0  0  0  0  0  0  0  0
    4.5080    2.5246    0.0000 C   0  0  0  0  0  0  0  0  0  0  0  0
    5.2224    1.2870    0.0000 C   0  0  0  0  0  0  0  0  0  0  0  0
    5.2224    2.9371    0.0000 C   0  0  0  0  0  0  0  0  0  0  0  0
    5.9370    1.6995    0.0000 C   0  0  0  0  0  0  0  0  0  0  0  0
    5.9370    2.5246    0.0000 C   0  0  0  0  0  0  0  0  0  0  0  0
  1 13  1  0
  2 12  2  0
  3 13  2  0
  4  5  1  0
  4  9  1  0
  4 13  1  0
  5  6  2  0
  5  8  1  0
  6  7  1  0
  7 10  2  0
  7 12  1  0
  8 11  2  0
 10 11  1  0
 12 14  1  0
 14 15  2  0
 14 16  1  0
 15 17  1  0
 16 18  2  0
 17 19  2  0
 18 19  1  0
M  END
$$$$
