1298
     RDKit          2D

 20 21  0  0  0  0  0  0  0  0999 V2000
    3.7935    0.9818    0.0000 S   0  0  0  0  0  0  0  0  0  0  0  0
    4.2060    0.2673    0.0000 O   0  0  0  0  0  0  0  0  0  0  0  0
    3.3810    1.6962    0.0000 O   0  0  0  0  0  0  0  0  0  0  0  0
    1.6500   -1.9058    0.0000 O   0  0  0  0  0  0  0  0  0  0  0  0
    3.0791   -1.9058    0.0000 N   0  0  0  0  0  0  0  0  0  0  0  0
    3.0791    0.5693    0.0000 N   0  0  0  0  0  0  0  0  0  0  0  0
    2.3645   -0.6683    0.0000 N   0  0  0  0  0  0  0  0  0  0  0  0
    6.6515    2.6318    0.0000 N   0  0  0  0  0  0  0  0  0  0  0  0
    4.5080    1.3943    0.0000 C   0  0  0  0  0  0  0  0  0  0  0  0
    3.0791   -0.2558    0.0000 C   0  0  0  0  0  0  0  0  0  0  0  0
    3.0791   -2.7308    0.0000 C   0  0  0  0  0  0  0  0  0  0  0  0
    3.7935   -1.4933    0.0000 C   0  0  0  0  0  0  0  0  0  0  0  0
    3.7935   -0.6683    0.0000 C   0  0  0  0  0  0  0  0  0  0  0  0
    5.2224    0.9818    0.0000 C   0  0  0  0  0  0  0  0  0  0  0  0
    4.5080    2.2193    0.0000 C   0  0  0  0  0  0  0  0  0  0  0  0
    2.3645   -1.4933    0.0000 C   0  0  0  0  0  0  0  0  0  0  0  0
    5.9370    1.3943    0.0000 C   0  0  0  0  0  0  0  0  0  0  0  0
    5.2224    2.6318    0.0000 C   0  0  0  0  0  0  0  0  0  0  0  0
    5.9370    2.2193    0.0000 C   0  0  0  0  0  0  0  0  0  0  0  0
    3.7935   -3.1433    0.0000 C   0  0  0  0  0  0  0  0  0  0  0  0
  1  2  2  0
  1  3  2  0
  1  6  1  0
  1  9  1  0
  4 16  2  0
  5 11  1  0
  5 12  1  0
  5 16  1  0
  6 10  1  0
  7 10  2  0
  7 16  1  0
  8 19  1  0
  9 14  2  0
  9 15  1  0
 10 13  1  0
 11 20  1  0
 12 13  2  0
 14 17  1  0
 15 18  2  0
 17 19  2  0
 18 19  1  0
M  END
$$$$
