
     RDKit          2D

 32 32  0  0  0  0  0  0  0  0999 V2000
   -2.5006    3.0937    0.0000 C   0  0  0  0  0  0  0  0  0  0  0  0
   -3.9295   -1.8562    0.0000 C   0  0  0  0  0  0  0  0  0  0  0  0
   -3.9295   -0.2062    0.0000 C   0  0  0  0  0  0  0  0  0  0  0  0
    0.3572   -2.6812    0.0000 C   0  0  0  0  0  0  0  0  0  0  0  0
    3.2151   -1.8562    0.0000 C   0  0  0  0  0  0  0  0  0  0  0  0
   -2.5006    2.2687    0.0000 C   0  0  0  0  0  0  0  0  0  0  0  0
   -3.2151   -1.4437    0.0000 C   0  0  0  0  0  0  0  0  0  0  0  0
    0.3572   -1.8562    0.0000 C   0  0  0  0  0  0  0  0  0  0  0  0
    2.5006   -1.4437    0.0000 C   0  0  0  0  0  0  0  0  0  0  0  0
   -1.0717   -0.2062    0.0000 C   0  0  0  0  0  0  0  0  0  0  0  0
   -1.0717    0.6187    0.0000 C   0  0  0  0  0  0  0  0  0  0  0  0
   -1.7861   -0.6187    0.0000 C   0  0  0  0  0  0  0  0  0  0  0  0
   -2.5006    0.6187    0.0000 C   0  0  0  0  0  0  0  0  0  0  0  0
   -1.7861    1.0312    0.0000 C   0  0  0  0  0  0  0  0  0  0  0  0
   -2.5006   -0.2062    0.0000 C   0  0  0  0  0  0  0  0  0  0  0  0
    1.0717   -1.4437    0.0000 C   0  0  0  0  0  0  0  0  0  0  0  0
    1.7861   -1.8562    0.0000 C   0  0  0  0  0  0  0  0  0  0  0  0
   -0.3572   -0.6187    0.0000 C   0  0  0  0  0  0  0  0  0  0  0  0
   -0.3572    1.0312    0.0000 I   0  0  0  0  0  0  0  0  0  0  0  0
   -1.7861   -1.4437    0.0000 I   0  0  0  0  0  0  0  0  0  0  0  0
   -3.2151    1.0312    0.0000 I   0  0  0  0  0  0  0  0  0  0  0  0
   -1.7861    1.8562    0.0000 N   0  0  0  0  0  0  0  0  0  0  0  0
   -0.3572   -1.4437    0.0000 N   0  0  0  0  0  0  0  0  0  0  0  0
   -3.2151   -0.6187    0.0000 N   0  0  0  0  0  0  0  0  0  0  0  0
   -0.3572   -3.0937    0.0000 O   0  0  0  0  0  0  0  0  0  0  0  0
    3.9295   -1.4437    0.0000 O   0  0  0  0  0  0  0  0  0  0  0  0
   -3.2151    1.8562    0.0000 O   0  0  0  0  0  0  0  0  0  0  0  0
   -2.5006   -1.8562    0.0000 O   0  0  0  0  0  0  0  0  0  0  0  0
    2.5006   -0.6187    0.0000 O   0  0  0  0  0  0  0  0  0  0  0  0
    1.0717   -0.6187    0.0000 O   0  0  0  0  0  0  0  0  0  0  0  0
    1.7861   -2.6812    0.0000 O   0  0  0  0  0  0  0  0  0  0  0  0
    0.3572   -0.2062    0.0000 O   0  0  0  0  0  0  0  0  0  0  0  0
  6  1  1  0
  7  2  1  0
  8  4  1  6
  9  5  1  0
 11 10  2  0
 12 10  1  0
 14 11  1  0
 14 13  2  0
 15 12  2  0
 15 13  1  0
 16  8  1  0
 17  9  1  0
 17 16  1  0
 18 10  1  0
 19 11  1  0
 20 12  1  0
 21 13  1  0
 22  6  2  3
 22 14  1  0
  8 23  1  0
 23 18  2  3
 24  3  1  0
 24  7  1  0
 24 15  1  0
 25  4  2  0
 26  5  1  0
 27  6  1  0
 28  7  2  0
  9 29  1  6
 16 30  1  1
 17 31  1  1
 18 32  1  0
M  END
$$$$
