
     RDKit          2D

 29 31  0  0  1  0  0  0  0  0999 V2000
   -1.3595    1.7519    0.0000 C   0  0  0  0  0  0  0  0  0  0  0  0
   -0.7145    1.2375    0.0000 C   0  0  0  0  0  0  0  0  0  0  0  0
   -0.7145    0.4125    0.0000 C   0  0  0  0  0  0  0  0  0  0  0  0
   -2.1638    1.5683    0.0000 C   0  0  0  0  0  0  0  0  0  0  0  0
   -2.1638    0.0817    0.0000 C   0  0  0  0  0  0  0  0  0  0  0  0
   -2.5218    0.8250    0.0000 C   0  0  0  0  0  0  0  0  0  0  0  0
    0.0000    0.0000    0.0000 C   0  0  0  0  0  0  0  0  0  0  0  0
    0.7145    0.4125    0.0000 C   0  0  0  0  0  0  0  0  0  0  0  0
    0.7145    1.2375    0.0000 C   0  0  0  0  0  0  0  0  0  0  0  0
    0.0000    1.6500    0.0000 C   0  0  0  0  0  0  0  0  0  0  0  0
    0.0000   -0.8250    0.0000 O   0  0  0  0  0  0  0  0  0  0  0  0
    1.4289    0.0000    0.0000 O   0  0  0  0  0  0  0  0  0  0  0  0
    1.4289    1.6500    0.0000 O   0  0  0  0  0  0  0  0  0  0  0  0
   -1.3595   -0.1019    0.0000 C   0  0  0  0  0  0  0  0  0  0  0  0
   -1.0015   -0.8452    0.0000 C   0  0  0  0  0  0  0  0  0  0  0  0
   -1.3595   -1.5885    0.0000 C   0  0  0  0  0  0  0  0  0  0  0  0
   -2.1638   -1.7721    0.0000 C   0  0  0  0  0  0  0  0  0  0  0  0
   -2.8088   -1.2577    0.0000 C   0  0  0  0  0  0  0  0  0  0  0  0
   -2.8088   -0.4327    0.0000 C   0  0  0  0  0  0  0  0  0  0  0  0
    1.4289    2.4750    0.0000 C   0  0  0  0  0  0  0  0  0  0  0  0
    2.1434    0.4125    0.0000 C   0  0  0  0  0  0  0  0  0  0  0  0
    0.7145   -1.2375    0.0000 C   0  0  0  0  0  0  0  0  0  0  0  0
   -3.5521   -1.6156    0.0000 O   0  0  0  0  0  0  0  0  0  0  0  0
   -2.3474   -2.5764    0.0000 O   0  0  0  0  0  0  0  0  0  0  0  0
   -1.7426   -3.1375    0.0000 C   0  0  0  0  0  0  0  0  0  0  0  0
   -3.3468    0.8250    0.0000 N   0  0  0  0  0  0  0  0  0  0  0  0
   -3.7593    1.5395    0.0000 C   0  0  0  0  0  0  0  0  0  0  0  0
   -3.3468    2.2539    0.0000 C   0  0  0  0  0  0  0  0  0  0  0  0
   -4.5843    1.5395    0.0000 O   0  0  0  0  0  0  0  0  0  0  0  0
  1  4  1  0
  2  3  2  0
  4  6  1  0
  1  2  1  0
  5  6  1  0
  3  7  1  0
  7  8  2  0
  8  9  1  0
  9 10  2  0
  2 10  1  0
  7 11  1  0
  8 12  1  0
  9 13  1  0
 16 17  2  0
 17 18  1  0
 15 16  1  0
  5 19  2  0
 14 15  2  0
 18 19  1  0
  3 14  1  0
 14  5  1  0
 13 20  1  0
 12 21  1  0
 11 22  1  0
 18 23  2  0
 17 24  1  0
 24 25  1  0
  6 26  1  0
 26 27  1  0
 27 28  1  0
 27 29  2  0
M  END
$$$$
