
     RDKit          2D

 26 27  0  0  0  0  0  0  0  0999 V2000
   -1.8005   -0.8684    0.0000 O   0  0  0  0  0  0  0  0  0  0  0  0
   -1.2498    2.1606    0.0000 O   0  0  0  0  0  0  0  0  0  0  0  0
    5.2958   -3.0185    0.0000 O   0  0  0  0  0  0  0  0  0  0  0  0
    5.2958   -1.5887    0.0000 O   0  0  0  0  0  0  0  0  0  0  0  0
    0.3071   -0.4554    0.0000 C   0  0  0  0  0  0  0  0  0  0  0  0
    0.3071   -1.2815    0.0000 C   0  0  0  0  0  0  0  0  0  0  0  0
   -0.4766   -0.2012    0.0000 C   0  0  0  0  0  0  0  0  0  0  0  0
   -0.4766   -1.5358    0.0000 C   0  0  0  0  0  0  0  0  0  0  0  0
   -0.9638   -0.8684    0.0000 C   0  0  0  0  0  0  0  0  0  0  0  0
    1.0909   -0.2012    0.0000 C   0  0  0  0  0  0  0  0  0  0  0  0
    1.0909   -1.5358    0.0000 C   0  0  0  0  0  0  0  0  0  0  0  0
    1.5675   -0.8684    0.0000 C   0  0  0  0  0  0  0  0  0  0  0  0
   -0.7414    0.5931    0.0000 C   0  0  0  0  0  0  0  0  0  0  0  0
    2.4042   -0.8684    0.0000 C   0  0  0  0  0  0  0  0  0  0  0  0
   -1.5463    0.7626    0.0000 C   0  0  0  0  0  0  0  0  0  0  0  0
    2.8173   -1.5887    0.0000 C   0  0  0  0  0  0  0  0  0  0  0  0
   -1.8005    1.5463    0.0000 C   0  0  0  0  0  0  0  0  0  0  0  0
    3.6435   -1.5887    0.0000 C   0  0  0  0  0  0  0  0  0  0  0  0
   -2.6161    1.7158    0.0000 C   0  0  0  0  0  0  0  0  0  0  0  0
    4.0565   -2.2983    0.0000 C   0  0  0  0  0  0  0  0  0  0  0  0
   -2.8702    2.5101    0.0000 C   0  0  0  0  0  0  0  0  0  0  0  0
   -3.1668    1.1015    0.0000 C   0  0  0  0  0  0  0  0  0  0  0  0
    4.8827   -2.2983    0.0000 C   0  0  0  0  0  0  0  0  0  0  0  0
   -3.6753    2.6797    0.0000 C   0  0  0  0  0  0  0  0  0  0  0  0
   -4.4908    2.8490    0.0000 C   0  0  0  0  0  0  0  0  0  0  0  0
   -5.2958    3.0185    0.0000 C   0  0  0  0  0  0  0  0  0  0  0  0
  9  1  1  1
 17  2  1  6
  3 23  1  0
  4 23  2  0
  5  6  1  0
  5  7  1  0
  5 10  1  1
  6  8  1  1
  6 11  1  0
  7  9  1  0
  7 13  1  6
  8  9  1  0
 10 12  1  0
 11 12  1  0
 12 14  2  0
 13 15  2  0
 14 16  1  0
 15 17  1  0
 16 18  1  0
 17 19  1  0
 18 20  1  0
 19 21  1  0
 19 22  1  0
 20 23  1  0
 21 24  1  0
 24 25  3  0
 25 26  1  0
M  END
$$$$
