1213
     RDKit          2D

  6  6  0  0  0  0  0  0  0  0999 V2000
    2.3176   -0.7128    0.0000 N   0  0  0  0  0  0  0  0  0  0  0  0
    1.6501   -0.2278    0.0000 N   0  0  0  0  0  0  0  0  0  0  0  0
    2.7301    0.5568    0.0000 C   0  0  0  0  0  0  0  0  0  0  0  0
    2.9850   -0.2278    0.0000 C   0  0  0  0  0  0  0  0  0  0  0  0
    3.2150    1.2243    0.0000 C   0  0  0  0  0  0  0  0  0  0  0  0
    1.9050    0.5568    0.0000 C   0  0  0  0  0  0  0  0  0  0  0  0
  1  2  1  0
  1  4  1  0
  2  6  2  0
  3  4  2  0
  3  5  1  0
  3  6  1  0
M  END
$$$$
