1248
     RDKit          2D

 58 63  0  0  1  0  0  0  0  0999 V2000
    4.2474   -3.4479    0.0000 O   0  0  0  0  0  0  0  0  0  0  0  0
    5.2019   -2.4065    0.0000 O   0  0  0  0  0  0  0  0  0  0  0  0
    5.6154   -1.6516    0.0000 O   0  0  0  0  0  0  0  0  0  0  0  0
    6.0023   -0.8082    0.0000 O   0  0  0  0  0  0  0  0  0  0  0  0
    2.0594   -1.2562    0.0000 O   0  0  0  0  0  0  0  0  0  0  0  0
    2.3669   -0.3060    0.0000 O   0  0  0  0  0  0  0  0  0  0  0  0
    2.9243    1.0396    0.0000 O   0  0  0  0  0  0  0  0  0  0  0  0
    6.2597    1.6839    0.0000 O   0  0  0  0  0  0  0  0  0  0  0  0
    6.2628   -3.3636    0.0000 O   0  0  0  0  0  0  0  0  0  0  0  0
    7.0389   -1.5270    0.0000 O   0  0  0  0  0  0  0  0  0  0  0  0
    7.2702    0.6735    0.0000 O   0  0  0  0  0  0  0  0  0  0  0  0
    7.4264    2.8506    0.0000 O   0  0  0  0  0  0  0  0  0  0  0  0
    9.6608    0.0329    0.0000 O   0  0  0  0  0  0  0  0  0  0  0  0
   10.0306    1.4131    0.0000 O   0  0  0  0  0  0  0  0  0  0  0  0
    8.6504    1.0433    0.0000 N   0  0  0  0  0  0  0  0  0  0  0  0
    4.2698   -1.3839    0.0000 C   0  0  0  0  0  0  0  0  0  0  0  0
    4.3951   -2.2340    0.0000 C   0  0  0  0  0  0  0  0  0  0  0  0
    3.5077   -1.0682    0.0000 C   0  0  0  0  0  0  0  0  0  0  0  0
    3.7174   -2.7624    0.0000 C   0  0  0  0  0  0  0  0  0  0  0  0
    5.0320   -1.0682    0.0000 C   0  0  0  0  0  0  0  0  0  0  0  0
    5.3478   -0.3060    0.0000 C   0  0  0  0  0  0  0  0  0  0  0  0
    2.8179   -1.5808    0.0000 C   0  0  0  0  0  0  0  0  0  0  0  0
    2.9235   -2.4336    0.0000 C   0  0  0  0  0  0  0  0  0  0  0  0
    5.0320    0.4562    0.0000 C   0  0  0  0  0  0  0  0  0  0  0  0
    4.9307   -2.9152    0.0000 C   0  0  0  0  0  0  0  0  0  0  0  0
    3.1919   -0.3060    0.0000 C   0  0  0  0  0  0  0  0  0  0  0  0
    5.9031    0.3059    0.0000 C   0  0  0  0  0  0  0  0  0  0  0  0
    4.2698    0.7720    0.0000 C   0  0  0  0  0  0  0  0  0  0  0  0
    2.7454   -0.7525    0.0000 C   0  0  0  0  0  0  0  0  0  0  0  0
    3.5077    0.4562    0.0000 C   0  0  0  0  0  0  0  0  0  0  0  0
    5.6764    1.1006    0.0000 C   0  0  0  0  0  0  0  0  0  0  0  0
    4.8817    1.3273    0.0000 C   0  0  0  0  0  0  0  0  0  0  0  0
    5.9484    0.7017    0.0000 C   0  0  0  0  0  0  0  0  0  0  0  0
    5.2776    1.3726    0.0000 C   0  0  0  0  0  0  0  0  0  0  0  0
    4.6940    2.1307    0.0000 C   0  0  0  0  0  0  0  0  0  0  0  0
    5.4561   -3.1913    0.0000 C   0  0  0  0  0  0  0  0  0  0  0  0
    6.3631   -2.0003    0.0000 C   0  0  0  0  0  0  0  0  0  0  0  0
    4.9034   -3.8038    0.0000 C   0  0  0  0  0  0  0  0  0  0  0  0
    7.0566    1.4704    0.0000 C   0  0  0  0  0  0  0  0  0  0  0  0
    7.0388   -2.4734    0.0000 C   0  0  0  0  0  0  0  0  0  0  0  0
    7.6399    2.0538    0.0000 C   0  0  0  0  0  0  0  0  0  0  0  0
    7.7865   -2.1247    0.0000 C   0  0  0  0  0  0  0  0  0  0  0  0
    6.9670   -3.2952    0.0000 C   0  0  0  0  0  0  0  0  0  0  0  0
    8.4369    1.8403    0.0000 C   0  0  0  0  0  0  0  0  0  0  0  0
    8.4624   -2.5979    0.0000 C   0  0  0  0  0  0  0  0  0  0  0  0
    7.6428   -3.7685    0.0000 C   0  0  0  0  0  0  0  0  0  0  0  0
    8.3904   -3.4198    0.0000 C   0  0  0  0  0  0  0  0  0  0  0  0
    9.0203    2.4236    0.0000 C   0  0  0  0  0  0  0  0  0  0  0  0
    8.8067    3.2205    0.0000 C   0  0  0  0  0  0  0  0  0  0  0  0
    9.8171    2.2100    0.0000 C   0  0  0  0  0  0  0  0  0  0  0  0
    9.4473    0.8298    0.0000 C   0  0  0  0  0  0  0  0  0  0  0  0
    9.3901    3.8038    0.0000 C   0  0  0  0  0  0  0  0  0  0  0  0
   10.4005    2.7934    0.0000 C   0  0  0  0  0  0  0  0  0  0  0  0
   10.1870    3.5903    0.0000 C   0  0  0  0  0  0  0  0  0  0  0  0
   10.4577   -0.1806    0.0000 C   0  0  0  0  0  0  0  0  0  0  0  0
   10.6713    0.6163    0.0000 C   0  0  0  0  0  0  0  0  0  0  0  0
   10.2441   -0.9775    0.0000 C   0  0  0  0  0  0  0  0  0  0  0  0
   11.2546   -0.3942    0.0000 C   0  0  0  0  0  0  0  0  0  0  0  0
  1 19  1  0
  1 25  1  0
 17  2  1  1
  2 36  1  0
 20  3  1  1
  3 37  1  0
 21  4  1  6
 22  5  1  6
  6 26  2  0
 30  7  1  6
 31  8  1  1
  8 39  1  0
  9 36  2  0
 10 37  2  0
 11 39  2  0
 41 12  1  6
 13 51  1  0
 13 55  1  0
 14 51  2  0
 44 15  1  6
 15 51  1  0
 16 17  1  0
 16 18  1  0
 16 20  1  6
 17 19  1  0
 17 25  1  0
 18 22  1  0
 18 26  1  0
 18 29  1  6
 19 23  1  6
 20 21  1  0
 21 24  1  0
 21 27  1  0
 22 23  1  0
 24 28  1  0
 24 33  1  0
 24 34  1  0
 26 30  1  0
 27 31  1  0
 28 30  1  0
 28 32  2  0
 31 32  1  0
 32 35  1  0
 36 38  1  0
 37 40  1  0
 39 41  1  0
 40 42  2  0
 40 43  1  0
 41 44  1  0
 42 45  1  0
 43 46  2  0
 44 48  1  0
 45 47  2  0
 46 47  1  0
 48 49  2  0
 48 50  1  0
 49 52  1  0
 50 53  2  0
 52 54  2  0
 53 54  1  0
 55 56  1  0
 55 57  1  0
 55 58  1  0
M  END
$$$$
