1604
     RDKit          2D

 32 34  0  0  1  0  0  0  0  0999 V2000
    7.6202    2.1383    0.0000 S   0  0  0  0  0  0  0  0  0  0  0  0
    5.4215    0.4703    0.0000 O   0  0  0  0  0  0  0  0  0  0  0  0
    7.3231   -0.5943    0.0000 O   0  0  0  0  0  0  0  0  0  0  0  0
    8.6820   -0.1528    0.0000 O   0  0  0  0  0  0  0  0  0  0  0  0
    4.4090    1.4630    0.0000 O   0  0  0  0  0  0  0  0  0  0  0  0
    7.0259   -1.9921    0.0000 O   0  0  0  0  0  0  0  0  0  0  0  0
    8.0879   -2.9482    0.0000 O   0  0  0  0  0  0  0  0  0  0  0  0
    6.8355    1.0583    0.0000 N   0  0  0  0  0  0  0  0  0  0  0  0
    5.4215    2.4713    0.0000 N   0  0  0  0  0  0  0  0  0  0  0  0
    4.2572    3.6404    0.0000 N   0  0  0  0  0  0  0  0  0  0  0  0
    6.8355    1.8833    0.0000 C   0  0  0  0  0  0  0  0  0  0  0  0
    8.1050    1.4708    0.0000 C   0  0  0  0  0  0  0  0  0  0  0  0
    7.6202    0.8034    0.0000 C   0  0  0  0  0  0  0  0  0  0  0  0
    6.0037    1.8868    0.0000 C   0  0  0  0  0  0  0  0  0  0  0  0
    6.0037    1.0549    0.0000 C   0  0  0  0  0  0  0  0  0  0  0  0
    8.7725    1.9558    0.0000 C   0  0  0  0  0  0  0  0  0  0  0  0
    8.7725    0.9859    0.0000 C   0  0  0  0  0  0  0  0  0  0  0  0
    7.8751    0.0187    0.0000 C   0  0  0  0  0  0  0  0  0  0  0  0
    4.6242    2.2594    0.0000 C   0  0  0  0  0  0  0  0  0  0  0  0
    4.0420    2.8440    0.0000 C   0  0  0  0  0  0  0  0  0  0  0  0
    7.5780   -1.3790    0.0000 C   0  0  0  0  0  0  0  0  0  0  0  0
    3.2447    2.6321    0.0000 C   0  0  0  0  0  0  0  0  0  0  0  0
    6.7288   -3.3898    0.0000 C   0  0  0  0  0  0  0  0  0  0  0  0
    3.0295    1.8356    0.0000 C   0  0  0  0  0  0  0  0  0  0  0  0
    2.6625    3.2167    0.0000 C   0  0  0  0  0  0  0  0  0  0  0  0
    7.2809   -2.7767    0.0000 C   0  0  0  0  0  0  0  0  0  0  0  0
    6.1768   -4.0028    0.0000 C   0  0  0  0  0  0  0  0  0  0  0  0
    7.3420   -3.9418    0.0000 C   0  0  0  0  0  0  0  0  0  0  0  0
    6.1158   -2.8378    0.0000 C   0  0  0  0  0  0  0  0  0  0  0  0
    2.2322    1.6238    0.0000 C   0  0  0  0  0  0  0  0  0  0  0  0
    1.8652    3.0048    0.0000 C   0  0  0  0  0  0  0  0  0  0  0  0
    1.6500    2.2083    0.0000 C   0  0  0  0  0  0  0  0  0  0  0  0
 11  1  1  1
  1 12  1  0
  2 15  2  0
  3 18  1  0
  3 21  1  0
  4 18  2  0
  5 19  2  0
  6 21  1  0
  6 26  1  0
  7 26  2  0
  8 11  1  0
  8 13  1  0
  8 15  1  0
 14  9  1  1
  9 19  1  0
 20 10  1  1
 11 14  1  0
 12 13  1  0
 12 16  1  0
 12 17  1  0
 13 18  1  6
 14 15  1  0
 19 20  1  0
 20 22  1  0
 22 24  2  0
 22 25  1  0
 23 26  1  0
 23 27  1  0
 23 28  1  0
 23 29  1  0
 24 30  1  0
 25 31  2  0
 30 32  2  0
 31 32  1  0
M  END
$$$$
