
     RDKit          2D

 37 41  0  0  1  0  0  0  0  0999 V2000
    5.5645   -5.6364    0.0000 C   0  0  0  0  0  0  0  0  0  0  0  0
    5.5645   -6.4614    0.0000 C   0  0  0  0  0  0  0  0  0  0  0  0
    6.2766   -6.8698    0.0000 N   0  0  0  0  0  0  0  0  0  0  0  0
    6.2766   -5.2198    0.0000 C   0  0  0  0  0  0  0  0  0  0  0  0
    6.9886   -5.6364    0.0000 C   0  0  0  0  0  0  0  0  0  0  0  0
    6.9851   -6.4614    0.0000 C   0  0  0  0  0  0  0  0  0  0  0  0
    7.6938   -6.8747    0.0000 C   0  0  0  0  0  0  0  0  0  0  0  0
    8.4106   -6.4675    0.0000 C   0  0  0  0  0  0  0  0  0  0  0  0
    7.7008   -5.2247    0.0000 C   0  0  0  0  0  0  0  0  0  0  0  0
    8.4142   -5.6473    0.0000 C   0  0  0  0  0  0  0  0  0  0  0  0
    8.4312   -3.9920    0.0000 C   0  0  0  0  0  0  0  0  0  0  0  0
    4.8507   -6.8750    0.0000 O   0  0  0  0  0  0  0  0  0  0  0  0
    7.6586   -4.4783    0.0000 C   0  0  0  0  0  0  0  0  0  0  0  0
    9.1481   -4.4139    0.0000 C   0  0  0  0  0  0  0  0  0  0  0  0
    9.1310   -5.2449    0.0000 C   0  0  0  0  0  0  0  0  0  0  0  0
    9.9161   -5.5180    0.0000 C   0  0  0  0  0  0  0  0  0  0  0  0
   10.4184   -4.8557    0.0000 C   0  0  0  0  0  0  0  0  0  0  0  0
    9.9437   -4.1734    0.0000 C   0  0  0  0  0  0  0  0  0  0  0  0
    9.1437   -3.6362    0.0000 C   0  0  0  0  0  0  0  0  0  0  0  0
    6.9812   -4.8073    0.0000 C   0  0  0  0  0  0  0  0  0  0  0  0
    9.9478   -3.3472    0.0000 C   0  0  0  0  0  0  0  0  0  0  0  0
    9.2356   -2.9307    0.0000 O   0  0  0  0  0  0  0  0  0  0  0  0
   10.6646   -2.9387    0.0000 N   0  0  0  0  0  0  0  0  0  0  0  0
   11.3767   -3.3552    0.0000 C   0  0  0  0  0  0  0  0  0  0  0  0
   11.3694   -4.1791    0.0000 C   0  0  0  0  0  0  0  0  0  0  0  0
   12.0806   -4.5956    0.0000 C   0  0  0  0  0  0  0  0  0  0  0  0
   12.7984   -4.1871    0.0000 C   0  0  0  0  0  0  0  0  0  0  0  0
   12.8004   -3.3578    0.0000 C   0  0  0  0  0  0  0  0  0  0  0  0
   12.0885   -2.9451    0.0000 C   0  0  0  0  0  0  0  0  0  0  0  0
   12.0897   -2.1201    0.0000 C   0  0  0  0  0  0  0  0  0  0  0  0
   12.8047   -1.7086    0.0000 F   0  0  0  0  0  0  0  0  0  0  0  0
   11.3758   -1.7066    0.0000 F   0  0  0  0  0  0  0  0  0  0  0  0
   12.0867   -1.2921    0.0000 F   0  0  0  0  0  0  0  0  0  0  0  0
   12.0755   -5.4206    0.0000 C   0  0  0  0  0  0  0  0  0  0  0  0
   11.3586   -5.8287    0.0000 F   0  0  0  0  0  0  0  0  0  0  0  0
   12.7874   -5.8375    0.0000 F   0  0  0  0  0  0  0  0  0  0  0  0
   12.0768   -6.2421    0.0000 F   0  0  0  0  0  0  0  0  0  0  0  0
  3  6  1  0
  5  4  1  0
 15 16  1  1
 16 17  1  0
 17 18  1  0
 18 14  1  0
  5  6  1  0
 14 19  1  1
  9 13  1  1
  5 20  1  1
 10 15  1  0
 18 21  1  1
 14 11  1  0
 21 22  2  0
 11 13  1  0
 21 23  1  0
  1  2  1  0
 23 24  1  0
  1  4  2  0
 24 25  2  0
  2  3  1  0
 25 26  1  0
  5  9  1  0
 26 27  2  0
  2 12  2  0
 27 28  1  0
 28 29  2  0
 29 24  1  0
  6  7  1  1
 29 30  1  0
  7  8  1  0
 14 15  1  0
 10  8  1  6
  9 10  1  0
 30 31  1  0
 30 32  1  0
 30 33  1  0
 26 34  1  0
 34 35  1  0
 34 36  1  0
 34 37  1  0
M  END
$$$$
