 
     RDKit          2D

 38 42  0  0  1  0  0  0  0  0999 V2000
   14.0105   -9.9160    0.0000 C   0  0  0  0  0  0  0  0  0  0  0  0
   14.0105  -10.7680    0.0000 C   0  0  0  0  0  0  0  0  0  0  0  0
   14.7250  -11.1803    0.0000 C   0  0  0  0  0  0  0  0  0  0  0  0
   14.7250   -9.5038    0.0000 C   0  0  0  0  0  0  0  0  0  0  0  0
   15.4397   -9.9160    0.0000 C   0  0  0  0  0  0  0  0  0  0  0  0
   15.4397  -10.7680    0.0000 C   0  0  0  0  0  0  0  0  0  0  0  0
   16.1542  -11.1803    0.0000 C   0  0  0  0  0  0  0  0  0  0  0  0
   16.1542   -9.5038    0.0000 C   0  0  0  0  0  0  0  0  0  0  0  0
   16.8688   -9.9435    0.0000 C   0  0  0  0  0  0  0  0  0  0  0  0
   16.8688  -10.7680    0.0000 C   0  0  0  0  0  0  0  0  0  0  0  0
   17.5834  -11.1803    0.0000 C   0  0  0  0  0  0  0  0  0  0  0  0
   17.6109   -9.5313    0.0000 C   0  0  0  0  0  0  0  0  0  0  0  0
   18.2980   -9.9435    0.0000 C   0  0  0  0  0  0  0  0  0  0  0  0
   18.2980  -10.7680    0.0000 C   0  0  0  0  0  0  0  0  0  0  0  0
   19.0126  -11.1803    0.0000 C   0  0  0  0  0  0  0  0  0  0  0  0
   19.7272  -10.7955    0.0000 C   0  0  0  0  0  0  0  0  0  0  0  0
   19.7272   -9.9710    0.0000 C   0  0  0  0  0  0  0  0  0  0  0  0
   19.0400   -9.5313    0.0000 C   0  0  0  0  0  0  0  0  0  0  0  0
   20.4418  -11.2078    0.0000 C   0  0  0  0  0  0  0  0  0  0  0  0
   21.1564  -10.7955    0.0000 N   0  0  0  0  0  0  0  0  0  0  0  0
   21.8709  -11.2078    0.0000 C   0  0  0  0  0  0  0  0  0  0  0  0
   22.5855  -10.7955    0.0000 N   0  0  0  0  0  0  0  0  0  0  0  0
   23.3794  -11.0612    0.0000 C   0  0  0  0  0  0  0  0  0  0  0  0
   23.8772  -10.4131    0.0000 C   0  0  0  0  0  0  0  0  0  0  0  0
   23.4049   -9.7077    0.0000 C   0  0  0  0  0  0  0  0  0  0  0  0
   22.5992   -9.9676    0.0000 C   0  0  0  0  0  0  0  0  0  0  0  0
   19.0400   -8.7067    0.0000 N   0  0  0  0  0  0  0  0  0  0  0  0
   19.7547   -8.3220    0.0000 C   0  0  0  0  0  0  0  0  0  0  0  0
   18.3255   -8.2945    0.0000 C   0  0  0  0  0  0  0  0  0  0  0  0
   16.4841   -8.6239    0.0000 C   0  0  0  0  0  0  0  0  0  0  0  0
   15.7420   -8.6239    0.0000 O   0  0  0  0  0  0  0  0  0  0  0  0
   14.7250  -12.0049    0.0000 O   0  0  0  0  0  0  0  0  0  0  0  0
   16.1542  -12.0049    0.0000 O   0  0  0  0  0  0  0  0  0  0  0  0
   17.5834  -12.0049    0.0000 O   0  0  0  0  0  0  0  0  0  0  0  0
   19.0126  -12.0323    0.0000 O   0  0  0  0  0  0  0  0  0  0  0  0
   20.4418  -12.0323    0.0000 O   0  0  0  0  0  0  0  0  0  0  0  0
   20.4693   -9.5588    0.0000 O   0  0  0  0  0  0  0  0  0  0  0  0
   18.2980  -11.5925    0.0000 O   0  0  0  0  0  0  0  0  0  0  0  0
  5  4  1  0
 21 22  1  0
  4  1  2  0
  9 10  1  0
 10 11  2  0
 22 23  1  0
 23 24  1  0
 24 25  1  0
 25 26  1  0
 26 22  1  0
 11 14  1  0
 18 27  1  6
 13 12  1  1
 27 28  1  0
  9 12  1  1
 27 29  1  0
  1  2  1  0
  2  3  2  0
  8 30  1  6
  5  6  2  0
  8 31  1  0
  6  7  1  0
  3 32  1  0
  7 10  1  0
  7 33  2  0
 13 14  1  0
 11 34  1  0
 14 15  1  0
 15 35  2  0
 15 16  1  0
 19 36  2  0
 16 17  2  0
 17 37  1  0
 17 18  1  0
 14 38  1  6
 18 13  1  0
  9  8  1  0
 16 19  1  0
  8  5  1  0
 19 20  1  0
  3  6  1  0
 20 21  1  0
M  END
$$$$
