1154
     RDKit          2D

 17 17  0  0  1  0  0  0  0  0999 V2000
    3.3001   -2.6665    0.0000 S   0  0  0  0  0  0  0  0  0  0  0  0
    4.7291   -0.1915    0.0000 O   0  0  0  0  0  0  0  0  0  0  0  0
    1.8711   -0.1915    0.0000 O   0  0  0  0  0  0  0  0  0  0  0  0
    4.0145   -1.4290    0.0000 N   0  0  0  0  0  0  0  0  0  0  0  0
    2.5856   -1.4290    0.0000 N   0  0  0  0  0  0  0  0  0  0  0  0
    3.3001   -0.1915    0.0000 C   0  0  0  0  0  0  0  0  0  0  0  0
    3.7126    0.5231    0.0000 C   0  0  0  0  0  0  0  0  0  0  0  0
    3.3001    1.2375    0.0000 C   0  0  0  0  0  0  0  0  0  0  0  0
    2.8876    0.5231    0.0000 C   0  0  0  0  0  0  0  0  0  0  0  0
    4.5376    0.5231    0.0000 C   0  0  0  0  0  0  0  0  0  0  0  0
    4.0145   -0.6040    0.0000 C   0  0  0  0  0  0  0  0  0  0  0  0
    2.5856   -0.6040    0.0000 C   0  0  0  0  0  0  0  0  0  0  0  0
    3.7126    1.9520    0.0000 C   0  0  0  0  0  0  0  0  0  0  0  0
    2.0625    0.5231    0.0000 C   0  0  0  0  0  0  0  0  0  0  0  0
    3.3001   -1.8415    0.0000 C   0  0  0  0  0  0  0  0  0  0  0  0
    3.3001    2.6665    0.0000 C   0  0  0  0  0  0  0  0  0  0  0  0
    1.6500    1.2375    0.0000 C   0  0  0  0  0  0  0  0  0  0  0  0
  1 15  2  0
  2 11  2  0
  3 12  2  0
  4 11  1  0
  4 15  1  0
  5 12  1  0
  5 15  1  0
  6  7  1  0
  6  9  1  0
  6 11  1  0
  6 12  1  0
  7  8  1  0
  7 10  1  0
  8 13  1  0
  9 14  1  0
 13 16  1  0
 14 17  2  3
M  END
$$$$
