1197
     RDKit          2D

 14 14  0  0  1  0  0  0  0  0999 V2000
    1.6500   -1.6166    0.0000 S   0  0  0  0  0  0  0  0  0  0  0  0
    3.7935   -0.3790    0.0000 O   0  0  0  0  0  0  0  0  0  0  0  0
    5.1443    1.6406    0.0000 O   0  0  0  0  0  0  0  0  0  0  0  0
    4.7026    0.2815    0.0000 O   0  0  0  0  0  0  0  0  0  0  0  0
    3.0791    0.8585    0.0000 N   0  0  0  0  0  0  0  0  0  0  0  0
    3.7465    1.3435    0.0000 C   0  0  0  0  0  0  0  0  0  0  0  0
    3.4916    2.1281    0.0000 C   0  0  0  0  0  0  0  0  0  0  0  0
    2.6666    2.1281    0.0000 C   0  0  0  0  0  0  0  0  0  0  0  0
    2.4115    1.3435    0.0000 C   0  0  0  0  0  0  0  0  0  0  0  0
    3.0791    0.0335    0.0000 C   0  0  0  0  0  0  0  0  0  0  0  0
    2.3645   -0.3790    0.0000 C   0  0  0  0  0  0  0  0  0  0  0  0
    4.5311    1.0885    0.0000 C   0  0  0  0  0  0  0  0  0  0  0  0
    2.3645   -1.2040    0.0000 C   0  0  0  0  0  0  0  0  0  0  0  0
    1.6500    0.0335    0.0000 C   0  0  0  0  0  0  0  0  0  0  0  0
  1 13  1  0
  2 10  2  0
  3 12  1  0
  4 12  2  0
  5  6  1  0
  5  9  1  0
  5 10  1  0
  6  7  1  0
  6 12  1  1
  7  8  1  0
  8  9  1  0
 10 11  1  0
 11 13  1  0
 11 14  1  1
M  END
$$$$
