3261
     RDKit          2D

 21 24  0  0  0  0  0  0  0  0999 V2000
    1.6500   -0.4448    0.0000 Cl  0  0  0  0  0  0  0  0  0  0  0  0
    4.8158   -1.5395    0.0000 N   0  0  0  0  0  0  0  0  0  0  0  0
    5.2283    0.2678    0.0000 N   0  0  0  0  0  0  0  0  0  0  0  0
    6.1244   -1.7758    0.0000 N   0  0  0  0  0  0  0  0  0  0  0  0
    5.7351   -2.4977    0.0000 N   0  0  0  0  0  0  0  0  0  0  0  0
    4.0726   -1.1816    0.0000 C   0  0  0  0  0  0  0  0  0  0  0  0
    3.8890   -0.3773    0.0000 C   0  0  0  0  0  0  0  0  0  0  0  0
    4.4033    0.2678    0.0000 C   0  0  0  0  0  0  0  0  0  0  0  0
    5.5592   -1.1816    0.0000 C   0  0  0  0  0  0  0  0  0  0  0  0
    5.7427   -0.3773    0.0000 C   0  0  0  0  0  0  0  0  0  0  0  0
    4.0455    1.0110    0.0000 C   0  0  0  0  0  0  0  0  0  0  0  0
    3.4517   -1.7757    0.0000 C   0  0  0  0  0  0  0  0  0  0  0  0
    3.0718   -0.1113    0.0000 C   0  0  0  0  0  0  0  0  0  0  0  0
    4.9280   -2.3519    0.0000 C   0  0  0  0  0  0  0  0  0  0  0  0
    2.6286   -1.5287    0.0000 C   0  0  0  0  0  0  0  0  0  0  0  0
    2.4374   -0.6909    0.0000 C   0  0  0  0  0  0  0  0  0  0  0  0
    4.5102    1.6927    0.0000 C   0  0  0  0  0  0  0  0  0  0  0  0
    3.2227    1.0727    0.0000 C   0  0  0  0  0  0  0  0  0  0  0  0
    4.1522    2.4360    0.0000 C   0  0  0  0  0  0  0  0  0  0  0  0
    2.8648    1.8160    0.0000 C   0  0  0  0  0  0  0  0  0  0  0  0
    3.3295    2.4977    0.0000 C   0  0  0  0  0  0  0  0  0  0  0  0
  1 16  1  0
  2  6  1  0
  2  9  1  0
  2 14  1  0
  3  8  2  0
  3 10  1  0
  4  5  1  0
  4  9  2  0
  5 14  2  0
  6  7  2  0
  6 12  1  0
  7  8  1  0
  7 13  1  0
  8 11  1  0
  9 10  1  0
 11 17  2  0
 11 18  1  0
 12 15  2  0
 13 16  2  0
 15 16  1  0
 17 19  1  0
 18 20  2  0
 19 21  2  0
 20 21  1  0
M  END
$$$$
