1393
     RDKit          2D

 25 26  0  0  0  0  0  0  0  0999 V2000
    2.3645   -5.0780    0.0000 Cl  0  0  0  0  0  0  0  0  0  0  0  0
    3.7935    3.1722    0.0000 O   0  0  0  0  0  0  0  0  0  0  0  0
    5.2224    4.8222    0.0000 O   0  0  0  0  0  0  0  0  0  0  0  0
    5.9370    3.5847    0.0000 O   0  0  0  0  0  0  0  0  0  0  0  0
    1.6500   -1.3654    0.0000 O   0  0  0  0  0  0  0  0  0  0  0  0
    3.0791   -1.3654    0.0000 N   0  0  0  0  0  0  0  0  0  0  0  0
    4.5080    3.5847    0.0000 C   0  0  0  0  0  0  0  0  0  0  0  0
    3.7935   -0.1279    0.0000 C   0  0  0  0  0  0  0  0  0  0  0  0
    3.7935    0.6971    0.0000 C   0  0  0  0  0  0  0  0  0  0  0  0
    3.0791   -0.5404    0.0000 C   0  0  0  0  0  0  0  0  0  0  0  0
    3.7935    2.3472    0.0000 C   0  0  0  0  0  0  0  0  0  0  0  0
    4.0955    4.2992    0.0000 C   0  0  0  0  0  0  0  0  0  0  0  0
    4.9205    2.8702    0.0000 C   0  0  0  0  0  0  0  0  0  0  0  0
    3.0791    1.1096    0.0000 C   0  0  0  0  0  0  0  0  0  0  0  0
    4.5080    1.1096    0.0000 C   0  0  0  0  0  0  0  0  0  0  0  0
    3.0791    1.9347    0.0000 C   0  0  0  0  0  0  0  0  0  0  0  0
    4.5080    1.9347    0.0000 C   0  0  0  0  0  0  0  0  0  0  0  0
    5.2224    3.9972    0.0000 C   0  0  0  0  0  0  0  0  0  0  0  0
    2.3645   -1.7779    0.0000 C   0  0  0  0  0  0  0  0  0  0  0  0
    2.3645   -2.6029    0.0000 C   0  0  0  0  0  0  0  0  0  0  0  0
    3.0791   -3.0154    0.0000 C   0  0  0  0  0  0  0  0  0  0  0  0
    1.6500   -3.0154    0.0000 C   0  0  0  0  0  0  0  0  0  0  0  0
    3.0791   -3.8405    0.0000 C   0  0  0  0  0  0  0  0  0  0  0  0
    1.6500   -3.8405    0.0000 C   0  0  0  0  0  0  0  0  0  0  0  0
    2.3645   -4.2530    0.0000 C   0  0  0  0  0  0  0  0  0  0  0  0
  1 25  1  0
  2  7  1  0
  2 11  1  0
  3 18  1  0
  4 18  2  0
  5 19  2  0
  6 10  1  0
  6 19  1  0
  7 12  1  0
  7 13  1  0
  7 18  1  0
  8  9  1  0
  8 10  1  0
  9 14  2  0
  9 15  1  0
 11 16  2  0
 11 17  1  0
 14 16  1  0
 15 17  2  0
 19 20  1  0
 20 21  2  0
 20 22  1  0
 21 23  1  0
 22 24  2  0
 23 25  2  0
 24 25  1  0
M  END
$$$$
