1288
     RDKit          2D

 22 23  0  0  1  0  0  0  0  0999 V2000
    2.3645   -0.4125    0.0000 O   0  0  0  0  0  0  0  0  0  0  0  0
    1.6500   -3.3001    0.0000 O   0  0  0  0  0  0  0  0  0  0  0  0
    4.5080   -3.3001    0.0000 O   0  0  0  0  0  0  0  0  0  0  0  0
    7.3659    3.3001    0.0000 O   0  0  0  0  0  0  0  0  0  0  0  0
    3.7935    0.4125    0.0000 N   0  0  0  0  0  0  0  0  0  0  0  0
    4.5080    0.8250    0.0000 C   0  0  0  0  0  0  0  0  0  0  0  0
    4.5080    1.6500    0.0000 C   0  0  0  0  0  0  0  0  0  0  0  0
    3.7935   -0.4125    0.0000 C   0  0  0  0  0  0  0  0  0  0  0  0
    3.0791   -0.8250    0.0000 C   0  0  0  0  0  0  0  0  0  0  0  0
    5.2224    0.4125    0.0000 C   0  0  0  0  0  0  0  0  0  0  0  0
    5.2224    2.0625    0.0000 C   0  0  0  0  0  0  0  0  0  0  0  0
    3.0791   -1.6500    0.0000 C   0  0  0  0  0  0  0  0  0  0  0  0
    5.9370    1.6500    0.0000 C   0  0  0  0  0  0  0  0  0  0  0  0
    5.2224    2.8876    0.0000 C   0  0  0  0  0  0  0  0  0  0  0  0
    3.7935   -2.0625    0.0000 C   0  0  0  0  0  0  0  0  0  0  0  0
    2.3645   -2.0625    0.0000 C   0  0  0  0  0  0  0  0  0  0  0  0
    2.3645   -2.8876    0.0000 C   0  0  0  0  0  0  0  0  0  0  0  0
    3.7935   -2.8876    0.0000 C   0  0  0  0  0  0  0  0  0  0  0  0
    6.6515    2.0625    0.0000 C   0  0  0  0  0  0  0  0  0  0  0  0
    5.9370    3.3001    0.0000 C   0  0  0  0  0  0  0  0  0  0  0  0
    6.6515    2.8876    0.0000 C   0  0  0  0  0  0  0  0  0  0  0  0
    3.0791   -3.3001    0.0000 C   0  0  0  0  0  0  0  0  0  0  0  0
  1  9  1  0
  2 17  1  0
  3 18  1  0
  4 21  1  0
  5  6  1  0
  5  8  1  0
  6  7  1  0
  6 10  1  0
  7 11  1  0
  8  9  1  0
  9 12  1  0
 11 13  2  0
 11 14  1  0
 12 15  2  0
 12 16  1  0
 13 19  1  0
 14 20  2  0
 15 18  1  0
 16 17  2  0
 17 22  1  0
 18 22  2  0
 19 21  2  0
 20 21  1  0
M  END
$$$$
