1618
     RDKit          2D

 20 22  0  0  1  0  0  0  0  0999 V2000
    1.6500   -0.6625    0.0000 O   0  0  0  0  0  0  0  0  0  0  0  0
    5.2224    1.4001    0.0000 O   0  0  0  0  0  0  0  0  0  0  0  0
    3.0791    0.1625    0.0000 N   0  0  0  0  0  0  0  0  0  0  0  0
    6.7176   -0.9139    0.0000 N   0  0  0  0  0  0  0  0  0  0  0  0
    4.5080    0.1625    0.0000 C   0  0  0  0  0  0  0  0  0  0  0  0
    4.5080   -0.6625    0.0000 C   0  0  0  0  0  0  0  0  0  0  0  0
    3.7935    0.5750    0.0000 C   0  0  0  0  0  0  0  0  0  0  0  0
    5.2224   -1.0750    0.0000 C   0  0  0  0  0  0  0  0  0  0  0  0
    5.9370    0.1625    0.0000 C   0  0  0  0  0  0  0  0  0  0  0  0
    5.9370   -0.6625    0.0000 C   0  0  0  0  0  0  0  0  0  0  0  0
    5.2224    0.5750    0.0000 C   0  0  0  0  0  0  0  0  0  0  0  0
    6.7176    0.4140    0.0000 C   0  0  0  0  0  0  0  0  0  0  0  0
    2.3645    0.5750    0.0000 C   0  0  0  0  0  0  0  0  0  0  0  0
    3.0791   -0.6625    0.0000 C   0  0  0  0  0  0  0  0  0  0  0  0
    7.1991   -0.2500    0.0000 C   0  0  0  0  0  0  0  0  0  0  0  0
    1.6500    0.1625    0.0000 C   0  0  0  0  0  0  0  0  0  0  0  0
    2.3645   -1.0750    0.0000 C   0  0  0  0  0  0  0  0  0  0  0  0
    6.9739    1.1982    0.0000 C   0  0  0  0  0  0  0  0  0  0  0  0
    8.0241   -0.2500    0.0000 C   0  0  0  0  0  0  0  0  0  0  0  0
    7.7812    1.3683    0.0000 C   0  0  0  0  0  0  0  0  0  0  0  0
  1 16  1  0
  1 17  1  0
  2 11  2  0
  3  7  1  0
  3 13  1  0
  3 14  1  0
  4 10  1  0
  4 15  1  0
  5  6  1  0
  5  7  1  0
  5 11  1  0
  6  8  1  0
  8 10  1  0
  9 10  2  0
  9 11  1  0
  9 12  1  0
 12 15  2  0
 12 18  1  0
 13 16  1  0
 14 17  1  0
 15 19  1  0
 18 20  1  0
M  END
$$$$
