 
     RDKit          2D

 24 29  0  0  1  0  0  0  0  0999 V2000
   11.7974   -9.7762    0.0000 C   0  0  0  0  0  0  0  0  0  0  0  0
   11.7974  -10.6012    0.0000 C   0  0  0  0  0  0  0  0  0  0  0  0
   12.5118  -11.0137    0.0000 C   0  0  0  0  0  0  0  0  0  0  0  0
   13.2263  -10.6012    0.0000 C   0  0  0  0  0  0  0  0  0  0  0  0
   13.2263   -9.7762    0.0000 C   0  0  0  0  0  0  0  0  0  0  0  0
   12.5118   -9.3637    0.0000 C   0  0  0  0  0  0  0  0  0  0  0  0
   14.0110  -10.8561    0.0000 N   0  0  0  0  0  0  0  0  0  0  0  0
   14.4959  -10.1887    0.0000 C   0  0  0  0  0  0  0  0  0  0  0  0
   14.0110   -9.5212    0.0000 C   0  0  0  0  0  0  0  0  0  0  0  0
   15.3163  -10.1024    0.0000 C   0  0  0  0  0  0  0  0  0  0  0  0
   15.6519   -9.3488    0.0000 N   0  0  0  0  0  0  0  0  0  0  0  0
   15.1670   -8.6813    0.0000 C   0  0  0  0  0  0  0  0  0  0  0  0
   14.3465   -8.7676    0.0000 C   0  0  0  0  0  0  0  0  0  0  0  0
   16.0700  -10.4380    0.0000 C   0  0  0  0  0  0  0  0  0  0  0  0
   16.4056   -9.6843    0.0000 C   0  0  0  0  0  0  0  0  0  0  0  0
   17.1949   -9.5493    0.0000 C   0  0  0  0  0  0  0  0  0  0  0  0
   16.4412   -9.2138    0.0000 C   0  0  0  0  0  0  0  0  0  0  0  0
   18.0198   -9.5493    0.0000 C   0  0  0  0  0  0  0  0  0  0  0  0
   15.6353   -7.5770    0.0000 C   0  0  0  0  0  0  0  0  0  0  0  0
   17.1794   -8.7974    0.0000 O   0  0  0  0  0  0  0  0  0  0  0  0
   14.0522   -7.5825    0.0000 C   0  0  0  0  0  0  0  0  0  0  0  0
   14.0110  -11.6811    0.0000 C   0  0  0  0  0  0  0  0  0  0  0  0
   13.4374   -7.0107    0.0000 O   0  0  0  0  0  0  0  0  0  0  0  0
   18.4429  -10.2819    0.0000 C   0  0  0  0  0  0  0  0  0  0  0  0
  1  2  2  0
  2  3  1  0
  3  4  2  0
  4  5  1  0
  5  6  2  0
  1  6  1  0
  4  7  1  0
  8  7  1  6
  8  9  1  0
  9  5  1  6
  8 10  1  0
 10 11  1  0
 11 12  1  0
 12 13  1  1
  9 13  1  0
 10 14  1  1
 15 14  1  6
 15 16  1  0
 16 17  1  0
 11 17  1  0
 16 18  1  1
 12 19  1  0
 15 19  1  0
 17 20  1  6
  9 21  1  0
 21 19  1  0
  7 22  1  0
 21 23  1  6
 18 24  1  0
M  END
$$$$
