1067
     RDKit          2D

 31 33  0  0  0  0  0  0  0  0999 V2000
    3.7935    2.2688    0.0000 S   0  0  0  0  0  0  0  0  0  0  0  0
    5.2224    3.0938    0.0000 O   0  0  0  0  0  0  0  0  0  0  0  0
    2.9685    2.2688    0.0000 O   0  0  0  0  0  0  0  0  0  0  0  0
    4.6185    2.2688    0.0000 O   0  0  0  0  0  0  0  0  0  0  0  0
    1.6500   -2.2688    0.0000 O   0  0  0  0  0  0  0  0  0  0  0  0
    4.5080    4.3313    0.0000 N   0  0  0  0  0  0  0  0  0  0  0  0
    3.7935    3.0938    0.0000 N   0  0  0  0  0  0  0  0  0  0  0  0
    3.0791   -2.2688    0.0000 N   0  0  0  0  0  0  0  0  0  0  0  0
    3.0791   -3.9188    0.0000 N   0  0  0  0  0  0  0  0  0  0  0  0
    1.6500   -4.7439    0.0000 N   0  0  0  0  0  0  0  0  0  0  0  0
    5.2224    4.7439    0.0000 C   0  0  0  0  0  0  0  0  0  0  0  0
    5.9370    4.3313    0.0000 C   0  0  0  0  0  0  0  0  0  0  0  0
    5.2224    5.5689    0.0000 C   0  0  0  0  0  0  0  0  0  0  0  0
    6.6515    4.7439    0.0000 C   0  0  0  0  0  0  0  0  0  0  0  0
    5.9370    5.9814    0.0000 C   0  0  0  0  0  0  0  0  0  0  0  0
    6.6515    5.5689    0.0000 C   0  0  0  0  0  0  0  0  0  0  0  0
    4.5080    3.5063    0.0000 C   0  0  0  0  0  0  0  0  0  0  0  0
    3.7935    1.4438    0.0000 C   0  0  0  0  0  0  0  0  0  0  0  0
    3.7935   -0.2063    0.0000 C   0  0  0  0  0  0  0  0  0  0  0  0
    3.0791    1.0313    0.0000 C   0  0  0  0  0  0  0  0  0  0  0  0
    4.5080    1.0313    0.0000 C   0  0  0  0  0  0  0  0  0  0  0  0
    3.7935   -1.0313    0.0000 C   0  0  0  0  0  0  0  0  0  0  0  0
    3.0791    0.2063    0.0000 C   0  0  0  0  0  0  0  0  0  0  0  0
    4.5080    0.2063    0.0000 C   0  0  0  0  0  0  0  0  0  0  0  0
    3.0791   -1.4438    0.0000 C   0  0  0  0  0  0  0  0  0  0  0  0
    2.3645   -2.6813    0.0000 C   0  0  0  0  0  0  0  0  0  0  0  0
    2.3645   -3.5063    0.0000 C   0  0  0  0  0  0  0  0  0  0  0  0
    1.6500   -3.9188    0.0000 C   0  0  0  0  0  0  0  0  0  0  0  0
    2.3645   -5.1564    0.0000 C   0  0  0  0  0  0  0  0  0  0  0  0
    3.0791   -4.7439    0.0000 C   0  0  0  0  0  0  0  0  0  0  0  0
    2.3645   -5.9814    0.0000 C   0  0  0  0  0  0  0  0  0  0  0  0
  1  3  2  0
  1  4  2  0
  1  7  1  0
  1 18  1  0
  2 17  2  0
  5 26  2  0
  6 11  1  0
  6 17  1  0
  7 17  1  0
  8 25  1  0
  8 26  1  0
  9 27  2  0
  9 30  1  0
 10 28  2  0
 10 29  1  0
 11 12  1  0
 11 13  1  0
 12 14  1  0
 13 15  1  0
 14 16  1  0
 15 16  1  0
 18 20  2  0
 18 21  1  0
 19 22  1  0
 19 23  2  0
 19 24  1  0
 20 23  1  0
 21 24  2  0
 22 25  1  0
 26 27  1  0
 27 28  1  0
 29 30  2  0
 29 31  1  0
M  END
$$$$
