1122
     RDKit          2D

 36 37  0  0  0  0  0  0  0  0999 V2000
    9.5094    3.9188    0.0000 Cl  0  0  0  0  0  0  0  0  0  0  0  0
    1.6500   -3.9188    0.0000 Cl  0  0  0  0  0  0  0  0  0  0  0  0
    6.6515   -0.2063    0.0000 O   0  0  0  0  0  0  0  0  0  0  0  0
    4.5080    0.2063    0.0000 O   0  0  0  0  0  0  0  0  0  0  0  0
    7.3659    2.6813    0.0000 N   0  0  0  0  0  0  0  0  0  0  0  0
    3.7935   -2.6813    0.0000 N   0  0  0  0  0  0  0  0  0  0  0  0
    5.9370    1.0313    0.0000 N   0  0  0  0  0  0  0  0  0  0  0  0
    5.2224   -1.0313    0.0000 N   0  0  0  0  0  0  0  0  0  0  0  0
    6.6515    2.2688    0.0000 C   0  0  0  0  0  0  0  0  0  0  0  0
    4.5080   -2.2688    0.0000 C   0  0  0  0  0  0  0  0  0  0  0  0
    8.0804    3.0938    0.0000 C   0  0  0  0  0  0  0  0  0  0  0  0
    3.0791   -3.0938    0.0000 C   0  0  0  0  0  0  0  0  0  0  0  0
    6.9534    3.3958    0.0000 C   0  0  0  0  0  0  0  0  0  0  0  0
    7.7784    1.9668    0.0000 C   0  0  0  0  0  0  0  0  0  0  0  0
    3.3810   -1.9668    0.0000 C   0  0  0  0  0  0  0  0  0  0  0  0
    4.2060   -3.3958    0.0000 C   0  0  0  0  0  0  0  0  0  0  0  0
    6.6515    1.4438    0.0000 C   0  0  0  0  0  0  0  0  0  0  0  0
    4.5080   -1.4438    0.0000 C   0  0  0  0  0  0  0  0  0  0  0  0
    8.0804    3.9188    0.0000 C   0  0  0  0  0  0  0  0  0  0  0  0
    3.0791   -3.9188    0.0000 C   0  0  0  0  0  0  0  0  0  0  0  0
    6.1284    3.3958    0.0000 C   0  0  0  0  0  0  0  0  0  0  0  0
    8.6035    1.9668    0.0000 C   0  0  0  0  0  0  0  0  0  0  0  0
    2.5560   -1.9668    0.0000 C   0  0  0  0  0  0  0  0  0  0  0  0
    5.0310   -3.3958    0.0000 C   0  0  0  0  0  0  0  0  0  0  0  0
    8.7949    4.3313    0.0000 C   0  0  0  0  0  0  0  0  0  0  0  0
    2.3645   -4.3313    0.0000 C   0  0  0  0  0  0  0  0  0  0  0  0
    7.3659    4.3313    0.0000 C   0  0  0  0  0  0  0  0  0  0  0  0
    3.7935   -4.3313    0.0000 C   0  0  0  0  0  0  0  0  0  0  0  0
    5.9370    0.2063    0.0000 C   0  0  0  0  0  0  0  0  0  0  0  0
    5.2224   -0.2063    0.0000 C   0  0  0  0  0  0  0  0  0  0  0  0
    8.7949    5.1564    0.0000 C   0  0  0  0  0  0  0  0  0  0  0  0
    2.3645   -5.1564    0.0000 C   0  0  0  0  0  0  0  0  0  0  0  0
    7.3659    5.1564    0.0000 C   0  0  0  0  0  0  0  0  0  0  0  0
    3.7935   -5.1564    0.0000 C   0  0  0  0  0  0  0  0  0  0  0  0
    8.0804    5.5689    0.0000 C   0  0  0  0  0  0  0  0  0  0  0  0
    3.0791   -5.5689    0.0000 C   0  0  0  0  0  0  0  0  0  0  0  0
  1 25  1  0
  2 26  1  0
  3 29  2  0
  4 30  2  0
  5  9  1  0
  5 11  1  0
  5 13  1  0
  5 14  1  0
  6 10  1  0
  6 12  1  0
  6 15  1  0
  6 16  1  0
  7 17  1  0
  7 29  1  0
  8 18  1  0
  8 30  1  0
  9 17  1  0
 10 18  1  0
 11 19  1  0
 12 20  1  0
 13 21  1  0
 14 22  1  0
 15 23  1  0
 16 24  1  0
 19 25  2  0
 19 27  1  0
 20 26  2  0
 20 28  1  0
 25 31  1  0
 26 32  1  0
 27 33  2  0
 28 34  2  0
 29 30  1  0
 31 35  2  0
 32 36  2  0
 33 35  1  0
 34 36  1  0
M  CHG  2   5   1   6   1
M  END
$$$$
