16A
     RDKit          2D

 20 19  0  0  0  0  0  0  0  0999 V2000
   -6.5465    0.1323    0.0000 C   0  0  0  0  0  0  0  0  0  0  0  0
   -5.8320   -0.2802    0.0000 C   0  0  0  0  0  0  0  0  0  0  0  0
   -5.1175    0.1323    0.0000 C   0  0  0  0  0  0  0  0  0  0  0  0
   -4.4029   -0.2802    0.0000 C   0  0  0  0  0  0  0  0  0  0  0  0
   -3.6884    0.1323    0.0000 C   0  0  0  0  0  0  0  0  0  0  0  0
   -2.9739   -0.2802    0.0000 C   0  0  0  0  0  0  0  0  0  0  0  0
   -2.2594    0.1323    0.0000 C   0  0  0  0  0  0  0  0  0  0  0  0
   -1.5448   -0.2802    0.0000 C   0  0  0  0  0  0  0  0  0  0  0  0
   -0.8304    0.1323    0.0000 C   0  0  0  0  0  0  0  0  0  0  0  0
   -0.1158   -0.2802    0.0000 C   0  0  0  0  0  0  0  0  0  0  0  0
    0.5987    0.1323    0.0000 C   0  0  0  0  0  0  0  0  0  0  0  0
    1.3133   -0.2802    0.0000 C   0  0  0  0  0  0  0  0  0  0  0  0
    2.0278    0.1323    0.0000 C   0  0  0  0  0  0  0  0  0  0  0  0
    2.7423   -0.2802    0.0000 C   0  0  0  0  0  0  0  0  0  0  0  0
    3.4569    0.1323    0.0000 C   0  0  0  0  0  0  0  0  0  0  0  0
    4.1713   -0.2802    0.0000 C   0  0  0  0  0  0  0  0  0  0  0  0
    4.8859    0.1323    0.0000 N   0  0  0  0  0  0  0  0  0  0  0  0
    5.6004    0.5448    0.0000 C   0  0  0  0  0  0  0  0  0  0  0  0
    5.2984   -0.5822    0.0000 C   0  0  0  0  0  0  0  0  0  0  0  0
    4.4733    0.8468    0.0000 C   0  0  0  0  0  0  0  0  0  0  0  0
  1  2  1  0
  2  3  1  0
  3  4  1  0
  4  5  1  0
  5  6  1  0
  6  7  1  0
  7  8  1  0
  8  9  1  0
  9 10  1  0
 10 11  1  0
 11 12  1  0
 12 13  1  0
 13 14  1  0
 14 15  1  0
 15 16  1  0
 16 17  1  0
 17 18  1  0
 17 19  1  0
 17 20  1  0
M  CHG  1  17   1
M  END
$$$$
