1032
     RDKit          2D

 19 19  0  0  0  0  0  0  0  0999 V2000
    3.0791    0.8745    0.0000 S   0  0  0  0  0  0  0  0  0  0  0  0
    2.2540    0.8745    0.0000 O   0  0  0  0  0  0  0  0  0  0  0  0
    3.9041    0.8745    0.0000 O   0  0  0  0  0  0  0  0  0  0  0  0
    2.3645   -2.8381    0.0000 O   0  0  0  0  0  0  0  0  0  0  0  0
    3.7935   -2.8381    0.0000 O   0  0  0  0  0  0  0  0  0  0  0  0
    3.0791    1.6995    0.0000 N   0  0  0  0  0  0  0  0  0  0  0  0
    3.7935    2.1120    0.0000 C   0  0  0  0  0  0  0  0  0  0  0  0
    2.3645    2.1120    0.0000 C   0  0  0  0  0  0  0  0  0  0  0  0
    3.7935    2.9371    0.0000 C   0  0  0  0  0  0  0  0  0  0  0  0
    2.3645    2.9371    0.0000 C   0  0  0  0  0  0  0  0  0  0  0  0
    3.0791    0.0495    0.0000 C   0  0  0  0  0  0  0  0  0  0  0  0
    4.5080    3.3496    0.0000 C   0  0  0  0  0  0  0  0  0  0  0  0
    1.6500    3.3496    0.0000 C   0  0  0  0  0  0  0  0  0  0  0  0
    2.3645   -0.3630    0.0000 C   0  0  0  0  0  0  0  0  0  0  0  0
    3.7935   -0.3630    0.0000 C   0  0  0  0  0  0  0  0  0  0  0  0
    2.3645   -1.1880    0.0000 C   0  0  0  0  0  0  0  0  0  0  0  0
    3.7935   -1.1880    0.0000 C   0  0  0  0  0  0  0  0  0  0  0  0
    3.0791   -1.6005    0.0000 C   0  0  0  0  0  0  0  0  0  0  0  0
    3.0791   -2.4256    0.0000 C   0  0  0  0  0  0  0  0  0  0  0  0
  1  2  2  0
  1  3  2  0
  1  6  1  0
  1 11  1  0
  4 19  1  0
  5 19  2  0
  6  7  1  0
  6  8  1  0
  7  9  1  0
  8 10  1  0
  9 12  1  0
 10 13  1  0
 11 14  2  0
 11 15  1  0
 14 16  1  0
 15 17  2  0
 16 18  2  0
 17 18  1  0
 18 19  1  0
M  END
$$$$
