1419
     RDKit          2D

 42 46  0  0  0  0  0  0  0  0999 V2000
    3.3000   -4.8937    0.0000 F   0  0  0  0  0  0  0  0  0  0  0  0
    1.6500   -4.8745    0.0000 F   0  0  0  0  0  0  0  0  0  0  0  0
    2.4655   -5.7090    0.0000 F   0  0  0  0  0  0  0  0  0  0  0  0
    3.5636    4.2801    0.0000 F   0  0  0  0  0  0  0  0  0  0  0  0
    3.2615    5.4071    0.0000 F   0  0  0  0  0  0  0  0  0  0  0  0
    4.3886    5.7090    0.0000 F   0  0  0  0  0  0  0  0  0  0  0  0
    6.8188    0.0161    0.0000 O   0  0  0  0  0  0  0  0  0  0  0  0
    6.1187    1.2618    0.0000 O   0  0  0  0  0  0  0  0  0  0  0  0
    5.3709   -1.6173    0.0000 N   0  0  0  0  0  0  0  0  0  0  0  0
    3.9325   -2.4257    0.0000 N   0  0  0  0  0  0  0  0  0  0  0  0
    6.8475    2.4910    0.0000 N   0  0  0  0  0  0  0  0  0  0  0  0
    6.8570    5.0232    0.0000 N   0  0  0  0  0  0  0  0  0  0  0  0
    5.3614   -2.4423    0.0000 C   0  0  0  0  0  0  0  0  0  0  0  0
    4.6613   -1.1965    0.0000 C   0  0  0  0  0  0  0  0  0  0  0  0
    4.6421   -2.8465    0.0000 C   0  0  0  0  0  0  0  0  0  0  0  0
    3.9420   -1.6008    0.0000 C   0  0  0  0  0  0  0  0  0  0  0  0
    6.0901   -1.2131    0.0000 C   0  0  0  0  0  0  0  0  0  0  0  0
    3.2133   -2.8300    0.0000 C   0  0  0  0  0  0  0  0  0  0  0  0
    6.0997   -0.3881    0.0000 C   0  0  0  0  0  0  0  0  0  0  0  0
    3.2037   -3.6549    0.0000 C   0  0  0  0  0  0  0  0  0  0  0  0
    2.5036   -2.4092    0.0000 C   0  0  0  0  0  0  0  0  0  0  0  0
    2.4845   -4.0592    0.0000 C   0  0  0  0  0  0  0  0  0  0  0  0
    1.7844   -2.8135    0.0000 C   0  0  0  0  0  0  0  0  0  0  0  0
    1.7749   -3.6384    0.0000 C   0  0  0  0  0  0  0  0  0  0  0  0
    2.4750   -4.8841    0.0000 C   0  0  0  0  0  0  0  0  0  0  0  0
    6.8284    0.8410    0.0000 C   0  0  0  0  0  0  0  0  0  0  0  0
    7.5476    1.2453    0.0000 C   0  0  0  0  0  0  0  0  0  0  0  0
    7.5571    2.0702    0.0000 C   0  0  0  0  0  0  0  0  0  0  0  0
    6.8570    3.3159    0.0000 C   0  0  0  0  0  0  0  0  0  0  0  0
    6.1195    3.7570    0.0000 C   0  0  0  0  0  0  0  0  0  0  0  0
    8.2573    0.8245    0.0000 C   0  0  0  0  0  0  0  0  0  0  0  0
    6.1195    4.5821    0.0000 C   0  0  0  0  0  0  0  0  0  0  0  0
    8.2763    2.4745    0.0000 C   0  0  0  0  0  0  0  0  0  0  0  0
    5.4050    3.3445    0.0000 C   0  0  0  0  0  0  0  0  0  0  0  0
    7.6045    3.7399    0.0000 C   0  0  0  0  0  0  0  0  0  0  0  0
    8.9765    1.2288    0.0000 C   0  0  0  0  0  0  0  0  0  0  0  0
    5.4050    4.9946    0.0000 C   0  0  0  0  0  0  0  0  0  0  0  0
    4.6905    4.5821    0.0000 C   0  0  0  0  0  0  0  0  0  0  0  0
    8.9860    2.0537    0.0000 C   0  0  0  0  0  0  0  0  0  0  0  0
    4.6905    3.7570    0.0000 C   0  0  0  0  0  0  0  0  0  0  0  0
    7.6045    4.5992    0.0000 C   0  0  0  0  0  0  0  0  0  0  0  0
    3.9761    4.9946    0.0000 C   0  0  0  0  0  0  0  0  0  0  0  0
  1 25  1  0
  2 25  1  0
  3 25  1  0
  4 42  1  0
  5 42  1  0
  6 42  1  0
  7 19  1  0
  7 26  1  0
  8 26  2  0
  9 13  1  0
  9 14  1  0
  9 17  1  0
 10 15  1  0
 10 16  1  0
 10 18  1  0
 11 28  1  0
 11 29  1  0
 12 32  2  0
 12 41  1  0
 13 15  1  0
 14 16  1  0
 17 19  1  0
 18 20  2  0
 18 21  1  0
 20 22  1  0
 21 23  2  0
 22 24  2  0
 22 25  1  0
 23 24  1  0
 26 27  1  0
 27 28  1  0
 27 31  2  0
 28 33  2  0
 29 30  2  0
 29 35  1  0
 30 32  1  0
 30 34  1  0
 31 36  1  0
 32 37  1  0
 33 39  1  0
 34 40  2  0
 35 41  2  0
 36 39  2  0
 37 38  2  0
 38 40  1  0
 38 42  1  0
M  END
$$$$
