1157
     RDKit          2D

 27 29  0  0  0  0  0  0  0  0999 V2000
    8.5698   -1.9212    0.0000 O   0  0  0  0  0  0  0  0  0  0  0  0
   10.0083    0.5483    0.0000 O   0  0  0  0  0  0  0  0  0  0  0  0
   10.0019   -1.1017    0.0000 O   0  0  0  0  0  0  0  0  0  0  0  0
    7.1504    0.5593    0.0000 N   0  0  0  0  0  0  0  0  0  0  0  0
    3.5220    1.8195    0.0000 N   0  0  0  0  0  0  0  0  0  0  0  0
    2.8075    0.5820    0.0000 N   0  0  0  0  0  0  0  0  0  0  0  0
    3.5220   -0.6556    0.0000 N   0  0  0  0  0  0  0  0  0  0  0  0
    2.0930    1.8195    0.0000 N   0  0  0  0  0  0  0  0  0  0  0  0
    5.7214    0.5648    0.0000 C   0  0  0  0  0  0  0  0  0  0  0  0
    4.9740    0.1408    0.0000 C   0  0  0  0  0  0  0  0  0  0  0  0
    6.4343    0.1496    0.0000 C   0  0  0  0  0  0  0  0  0  0  0  0
    4.2364    0.5820    0.0000 C   0  0  0  0  0  0  0  0  0  0  0  0
    4.2364    1.4070    0.0000 C   0  0  0  0  0  0  0  0  0  0  0  0
    5.7214    1.4241    0.0000 C   0  0  0  0  0  0  0  0  0  0  0  0
    4.9740    1.8481    0.0000 C   0  0  0  0  0  0  0  0  0  0  0  0
    4.9644   -0.6841    0.0000 C   0  0  0  0  0  0  0  0  0  0  0  0
    7.8633    0.1440    0.0000 C   0  0  0  0  0  0  0  0  0  0  0  0
    3.5220    0.1695    0.0000 C   0  0  0  0  0  0  0  0  0  0  0  0
    8.5793    0.5537    0.0000 C   0  0  0  0  0  0  0  0  0  0  0  0
    7.8601   -0.6810    0.0000 C   0  0  0  0  0  0  0  0  0  0  0  0
    8.5730   -1.0963    0.0000 C   0  0  0  0  0  0  0  0  0  0  0  0
    9.2922    0.1385    0.0000 C   0  0  0  0  0  0  0  0  0  0  0  0
    9.2890   -0.6865    0.0000 C   0  0  0  0  0  0  0  0  0  0  0  0
    2.8075    1.4070    0.0000 C   0  0  0  0  0  0  0  0  0  0  0  0
    7.8537   -2.3310    0.0000 C   0  0  0  0  0  0  0  0  0  0  0  0
   10.0115    1.3733    0.0000 C   0  0  0  0  0  0  0  0  0  0  0  0
   10.7180   -0.6920    0.0000 C   0  0  0  0  0  0  0  0  0  0  0  0
  1 21  1  0
  1 25  1  0
  2 22  1  0
  2 26  1  0
  3 23  1  0
  3 27  1  0
  4 11  1  0
  4 17  1  0
  5 13  2  0
  5 24  1  0
  6 18  1  0
  6 24  2  0
  7 18  1  0
  8 24  1  0
  9 10  2  0
  9 11  1  0
  9 14  1  0
 10 12  1  0
 10 16  1  0
 12 13  1  0
 12 18  2  0
 13 15  1  0
 14 15  2  0
 17 19  2  0
 17 20  1  0
 19 22  1  0
 20 21  2  0
 21 23  1  0
 22 23  2  0
M  END
$$$$
