1395
     RDKit          2D

 27 33  0  0  1  0  0  0  0  0999 V2000
    3.3963   -1.6419    0.0000 O   0  0  0  0  0  0  0  0  0  0  0  0
    3.6170   -3.0361    0.0000 O   0  0  0  0  0  0  0  0  0  0  0  0
    6.8101    3.0361    0.0000 O   0  0  0  0  0  0  0  0  0  0  0  0
    3.1514    0.0426    0.0000 C   0  0  0  0  0  0  0  0  0  0  0  0
    2.3593    0.0426    0.0000 C   0  0  0  0  0  0  0  0  0  0  0  0
    2.1146   -0.7108    0.0000 C   0  0  0  0  0  0  0  0  0  0  0  0
    3.3963   -0.7108    0.0000 C   0  0  0  0  0  0  0  0  0  0  0  0
    3.6940    0.6641    0.0000 C   0  0  0  0  0  0  0  0  0  0  0  0
    2.7553   -1.1763    0.0000 C   0  0  0  0  0  0  0  0  0  0  0  0
    1.5842   -0.1221    0.0000 C   0  0  0  0  0  0  0  0  0  0  0  0
    3.4095    1.4751    0.0000 C   0  0  0  0  0  0  0  0  0  0  0  0
    4.5023    0.4988    0.0000 C   0  0  0  0  0  0  0  0  0  0  0  0
    3.9747    2.1225    0.0000 C   0  0  0  0  0  0  0  0  0  0  0  0
    4.2005   -0.8947    0.0000 C   0  0  0  0  0  0  0  0  0  0  0  0
    3.1312    2.2886    0.0000 C   0  0  0  0  0  0  0  0  0  0  0  0
    5.0822    1.1330    0.0000 C   0  0  0  0  0  0  0  0  0  0  0  0
    4.7573   -0.2858    0.0000 C   0  0  0  0  0  0  0  0  0  0  0  0
    2.1146   -1.6419    0.0000 C   0  0  0  0  0  0  0  0  0  0  0  0
    4.8167    1.9503    0.0000 C   0  0  0  0  0  0  0  0  0  0  0  0
    3.8838   -1.3350    0.0000 C   0  0  0  0  0  0  0  0  0  0  0  0
    5.9550    0.9334    0.0000 C   0  0  0  0  0  0  0  0  0  0  0  0
    2.3593   -2.3953    0.0000 C   0  0  0  0  0  0  0  0  0  0  0  0
    5.3270    0.3797    0.0000 C   0  0  0  0  0  0  0  0  0  0  0  0
    3.1514   -2.3953    0.0000 C   0  0  0  0  0  0  0  0  0  0  0  0
    5.4054    2.6248    0.0000 C   0  0  0  0  0  0  0  0  0  0  0  0
    6.5590    1.5940    0.0000 C   0  0  0  0  0  0  0  0  0  0  0  0
    6.2824    2.4455    0.0000 C   0  0  0  0  0  0  0  0  0  0  0  0
  9  1  1  0
  1 24  1  0
  2 24  2  0
  3 27  2  0
  4  5  1  1
  4  7  1  0
  4  8  1  0
  5  6  1  0
  5 10  1  1
  6  9  1  0
  6 10  1  1
  7  9  1  0
  7 14  1  0
  7 20  1  1
  8 11  1  6
  8 12  1  0
  9 18  1  6
 11 13  1  0
 11 15  1  1
 12 16  1  0
 12 17  1  1
 13 15  1  1
 13 19  1  0
 14 17  1  0
 16 19  1  0
 16 21  1  0
 16 23  1  1
 18 22  1  0
 19 25  2  0
 21 26  1  0
 22 24  1  0
 25 27  1  0
 26 27  1  0
M  END
$$$$
