1408
     RDKit          2D

 26 26  0  0  1  0  0  0  0  0999 V2000
    3.7935    1.4991    0.0000 O   0  0  0  0  0  0  0  0  0  0  0  0
    3.0791   -1.3885    0.0000 O   0  0  0  0  0  0  0  0  0  0  0  0
    5.9370   -1.3885    0.0000 O   0  0  0  0  0  0  0  0  0  0  0  0
    3.7935   -2.6260    0.0000 O   0  0  0  0  0  0  0  0  0  0  0  0
    5.2224   -2.6260    0.0000 O   0  0  0  0  0  0  0  0  0  0  0  0
    5.2224    2.3241    0.0000 N   0  0  0  0  0  0  0  0  0  0  0  0
    2.3645   -2.6260    0.0000 N   0  0  0  0  0  0  0  0  0  0  0  0
    6.6515   -2.6260    0.0000 N   0  0  0  0  0  0  0  0  0  0  0  0
    5.9370    2.7366    0.0000 C   0  0  0  0  0  0  0  0  0  0  0  0
    5.2224    1.4991    0.0000 C   0  0  0  0  0  0  0  0  0  0  0  0
    4.5080    1.0865    0.0000 C   0  0  0  0  0  0  0  0  0  0  0  0
    6.3495    2.0221    0.0000 C   0  0  0  0  0  0  0  0  0  0  0  0
    5.5245    3.4511    0.0000 C   0  0  0  0  0  0  0  0  0  0  0  0
    6.6515    3.1491    0.0000 C   0  0  0  0  0  0  0  0  0  0  0  0
    4.5080    0.2615    0.0000 C   0  0  0  0  0  0  0  0  0  0  0  0
    5.2224   -0.1510    0.0000 C   0  0  0  0  0  0  0  0  0  0  0  0
    3.7935   -0.1510    0.0000 C   0  0  0  0  0  0  0  0  0  0  0  0
    3.7935   -0.9760    0.0000 C   0  0  0  0  0  0  0  0  0  0  0  0
    5.2224   -0.9760    0.0000 C   0  0  0  0  0  0  0  0  0  0  0  0
    4.5080   -1.3885    0.0000 C   0  0  0  0  0  0  0  0  0  0  0  0
    3.0791   -2.2135    0.0000 C   0  0  0  0  0  0  0  0  0  0  0  0
    5.9370   -2.2135    0.0000 C   0  0  0  0  0  0  0  0  0  0  0  0
    1.6500   -2.2135    0.0000 C   0  0  0  0  0  0  0  0  0  0  0  0
    2.3645   -3.4511    0.0000 C   0  0  0  0  0  0  0  0  0  0  0  0
    7.3659   -2.2135    0.0000 C   0  0  0  0  0  0  0  0  0  0  0  0
    6.6515   -3.4511    0.0000 C   0  0  0  0  0  0  0  0  0  0  0  0
  1 11  1  0
  2 18  1  0
  2 21  1  0
  3 19  1  0
  3 22  1  0
  4 21  2  0
  5 22  2  0
  6  9  1  0
  6 10  1  0
  7 21  1  0
  7 23  1  0
  7 24  1  0
  8 22  1  0
  8 25  1  0
  8 26  1  0
  9 12  1  0
  9 13  1  0
  9 14  1  0
 10 11  1  0
 11 15  1  0
 15 16  2  0
 15 17  1  0
 16 19  1  0
 17 18  2  0
 18 20  1  0
 19 20  2  0
M  END
$$$$
