
     RDKit          2D

 34 37  0  0  0  0  0  0  0  0999 V2000
   -1.4036   -3.9359    0.0000 C   0  0  0  0  0  0  0  0  0  0  0  0
   -2.1255   -5.1620    0.0000 C   0  0  0  0  0  0  0  0  0  0  0  0
   -0.6989   -4.3370    0.0000 C   0  0  0  0  0  0  0  0  0  0  0  0
   -2.1255   -4.3370    0.0000 C   0  0  0  0  0  0  0  0  0  0  0  0
    4.2969   -3.8901    0.0000 C   0  0  0  0  0  0  0  0  0  0  0  0
    5.0073   -5.1219    0.0000 C   0  0  0  0  0  0  0  0  0  0  0  0
   -1.4036   -5.5745    0.0000 O   0  0  0  0  0  0  0  0  0  0  0  0
   -0.6989   -5.1620    0.0000 C   0  0  0  0  0  0  0  0  0  0  0  0
    5.0073   -4.3026    0.0000 C   0  0  0  0  0  0  0  0  0  0  0  0
    3.5922   -4.3026    0.0000 C   0  0  0  0  0  0  0  0  0  0  0  0
    3.5980   -5.1276    0.0000 C   0  0  0  0  0  0  0  0  0  0  0  0
   -2.8302   -5.5745    0.0000 C   0  0  0  0  0  0  0  0  0  0  0  0
    5.7292   -5.5344    0.0000 C   0  0  0  0  0  0  0  0  0  0  0  0
    4.3026   -5.5344    0.0000 O   0  0  0  0  0  0  0  0  0  0  0  0
    0.0172   -3.9245    0.0000 C   0  0  0  0  0  0  0  0  0  0  0  0
    2.8761   -3.9073    0.0000 C   0  0  0  0  0  0  0  0  0  0  0  0
   -1.4036   -3.1109    0.0000 O   0  0  0  0  0  0  0  0  0  0  0  0
    4.2855   -3.0651    0.0000 O   0  0  0  0  0  0  0  0  0  0  0  0
   -2.8474   -6.3995    0.0000 O   0  0  0  0  0  0  0  0  0  0  0  0
    6.4453   -5.1105    0.0000 O   0  0  0  0  0  0  0  0  0  0  0  0
    0.0058   -3.0995    0.0000 O   0  0  0  0  0  0  0  0  0  0  0  0
    2.8703   -3.0823    0.0000 O   0  0  0  0  0  0  0  0  0  0  0  0
    5.7292   -6.3594    0.0000 O   0  0  0  0  0  0  0  0  0  0  0  0
   -3.5234   -5.1105    0.0000 O   0  0  0  0  0  0  0  0  0  0  0  0
    1.4437   -3.0937    0.0000 C   0  0  0  0  0  0  0  0  0  0  0  0
    0.7219   -2.6870    0.0000 C   0  0  0  0  0  0  0  0  0  0  0  0
    2.1542   -2.6698    0.0000 C   0  0  0  0  0  0  0  0  0  0  0  0
    0.0172   -5.5745    0.0000 C   0  0  0  0  0  0  0  0  0  0  0  0
    2.8875   -5.5573    0.0000 C   0  0  0  0  0  0  0  0  0  0  0  0
    1.4437   -3.9187    0.0000 O   0  0  0  0  0  0  0  0  0  0  0  0
    2.1656   -5.1448    0.0000 C   0  0  0  0  0  0  0  0  0  0  0  0
    0.7276   -5.1620    0.0000 C   0  0  0  0  0  0  0  0  0  0  0  0
    0.7276   -4.3370    0.0000 C   0  0  0  0  0  0  0  0  0  0  0  0
    2.1656   -4.3198    0.0000 C   0  0  0  0  0  0  0  0  0  0  0  0
  2  4  2  0
  3  1  1  0
  4  1  1  0
  5 10  1  0
  6 14  1  0
  7  2  1  0
  8  3  2  0
  9  5  1  0
 10 16  2  0
 11 10  1  0
 12  2  1  0
 13  6  1  0
 14 11  1  0
 15  3  1  0
 16 22  1  0
 17  1  2  0
 18  5  2  0
 19 12  2  0
 20 13  1  0
 21 15  1  0
 22 27  1  0
 23 13  2  0
 24 12  1  0
 25 26  1  0
 26 21  1  0
 27 25  1  0
 28  8  1  0
 29 31  1  0
 30 25  1  0
 31 34  2  0
 32 33  1  0
 33 15  2  0
 34 16  1  0
  8  7  1  0
 28 32  2  0
 11 29  2  0
  9  6  2  0
M  END
$$$$
