1071
     RDKit          2D

 23 27  0  0  1  0  0  0  0  0999 V2000
    3.6958   -2.9819    0.0000 S   0  0  0  0  0  0  0  0  0  0  0  0
    5.7480    1.0364    0.0000 N   0  0  0  0  0  0  0  0  0  0  0  0
    3.6958   -1.3978    0.0000 N   0  0  0  0  0  0  0  0  0  0  0  0
    4.9829    1.2414    0.0000 C   0  0  0  0  0  0  0  0  0  0  0  0
    4.3819   -0.2097    0.0000 C   0  0  0  0  0  0  0  0  0  0  0  0
    5.1469   -0.4147    0.0000 C   0  0  0  0  0  0  0  0  0  0  0  0
    4.1908    2.6133    0.0000 C   0  0  0  0  0  0  0  0  0  0  0  0
    6.4201    2.0159    0.0000 C   0  0  0  0  0  0  0  0  0  0  0  0
    4.8767    3.0093    0.0000 C   0  0  0  0  0  0  0  0  0  0  0  0
    6.8162    1.3300    0.0000 C   0  0  0  0  0  0  0  0  0  0  0  0
    3.6958   -0.6057    0.0000 C   0  0  0  0  0  0  0  0  0  0  0  0
    4.3819   -1.7938    0.0000 C   0  0  0  0  0  0  0  0  0  0  0  0
    3.0099   -1.7938    0.0000 C   0  0  0  0  0  0  0  0  0  0  0  0
    4.3819   -2.5859    0.0000 C   0  0  0  0  0  0  0  0  0  0  0  0
    3.0099   -2.5859    0.0000 C   0  0  0  0  0  0  0  0  0  0  0  0
    5.0899   -1.3703    0.0000 C   0  0  0  0  0  0  0  0  0  0  0  0
    2.3019   -1.3703    0.0000 C   0  0  0  0  0  0  0  0  0  0  0  0
    5.0899   -3.0093    0.0000 C   0  0  0  0  0  0  0  0  0  0  0  0
    2.3019   -3.0093    0.0000 C   0  0  0  0  0  0  0  0  0  0  0  0
    5.8076   -1.7773    0.0000 C   0  0  0  0  0  0  0  0  0  0  0  0
    1.5842   -1.7773    0.0000 C   0  0  0  0  0  0  0  0  0  0  0  0
    5.8076   -2.6024    0.0000 C   0  0  0  0  0  0  0  0  0  0  0  0
    1.5842   -2.6024    0.0000 C   0  0  0  0  0  0  0  0  0  0  0  0
  1 14  1  0
  1 15  1  0
  2  6  1  0
  2  9  1  0
  2 10  1  0
  3 11  1  0
  3 12  1  0
  3 13  1  0
  4  5  1  0
  4  7  1  0
  4  8  1  0
  5  6  1  0
  5 11  1  0
  7  9  1  0
  8 10  1  0
 12 14  2  0
 12 16  1  0
 13 15  2  0
 13 17  1  0
 14 18  1  0
 15 19  1  0
 16 20  2  0
 17 21  2  0
 18 22  2  0
 19 23  2  0
 20 22  1  0
 21 23  1  0
M  END
$$$$
