1623
     RDKit          2D

 30 33  0  0  0  0  0  0  0  0999 V2000
    6.7619   -0.9970    0.0000 S   0  0  0  0  0  0  0  0  0  0  0  0
    3.8495   -2.6670    0.0000 S   0  0  0  0  0  0  0  0  0  0  0  0
    6.3466   -0.2841    0.0000 O   0  0  0  0  0  0  0  0  0  0  0  0
    7.1771   -1.7099    0.0000 O   0  0  0  0  0  0  0  0  0  0  0  0
    5.2784    1.4580    0.0000 N   0  0  0  0  0  0  0  0  0  0  0  0
    6.7073    2.2830    0.0000 N   0  0  0  0  0  0  0  0  0  0  0  0
    7.4747   -0.5818    0.0000 N   0  0  0  0  0  0  0  0  0  0  0  0
    5.9929    1.0455    0.0000 C   0  0  0  0  0  0  0  0  0  0  0  0
    5.2784    2.2830    0.0000 C   0  0  0  0  0  0  0  0  0  0  0  0
    6.7073    1.4580    0.0000 C   0  0  0  0  0  0  0  0  0  0  0  0
    5.9929    2.6955    0.0000 C   0  0  0  0  0  0  0  0  0  0  0  0
    4.5640    1.0455    0.0000 C   0  0  0  0  0  0  0  0  0  0  0  0
    4.5640    0.2205    0.0000 C   0  0  0  0  0  0  0  0  0  0  0  0
    7.4219    2.6955    0.0000 C   0  0  0  0  0  0  0  0  0  0  0  0
    3.8495   -0.1920    0.0000 C   0  0  0  0  0  0  0  0  0  0  0  0
    3.8495   -1.0170    0.0000 C   0  0  0  0  0  0  0  0  0  0  0  0
    4.5640   -1.4295    0.0000 C   0  0  0  0  0  0  0  0  0  0  0  0
    3.1350   -1.4295    0.0000 C   0  0  0  0  0  0  0  0  0  0  0  0
    4.5640   -2.2545    0.0000 C   0  0  0  0  0  0  0  0  0  0  0  0
    5.3015   -0.9884    0.0000 C   0  0  0  0  0  0  0  0  0  0  0  0
    3.1350   -2.2545    0.0000 C   0  0  0  0  0  0  0  0  0  0  0  0
    6.0490   -1.4123    0.0000 C   0  0  0  0  0  0  0  0  0  0  0  0
    5.3015   -2.6955    0.0000 C   0  0  0  0  0  0  0  0  0  0  0  0
    2.3975   -0.9884    0.0000 C   0  0  0  0  0  0  0  0  0  0  0  0
    6.0490   -2.2716    0.0000 C   0  0  0  0  0  0  0  0  0  0  0  0
    2.3975   -2.6955    0.0000 C   0  0  0  0  0  0  0  0  0  0  0  0
    1.6500   -1.4123    0.0000 C   0  0  0  0  0  0  0  0  0  0  0  0
    1.6500   -2.2716    0.0000 C   0  0  0  0  0  0  0  0  0  0  0  0
    8.1908   -0.9915    0.0000 C   0  0  0  0  0  0  0  0  0  0  0  0
    7.4715    0.2432    0.0000 C   0  0  0  0  0  0  0  0  0  0  0  0
  1  3  2  0
  1  4  2  0
  1  7  1  0
  1 22  1  0
  2 19  1  0
  2 21  1  0
  5  8  1  0
  5  9  1  0
  5 12  1  0
  6 10  1  0
  6 11  1  0
  6 14  1  0
  7 29  1  0
  7 30  1  0
  8 10  1  0
  9 11  1  0
 12 13  1  0
 13 15  1  0
 15 16  2  0
 16 17  1  0
 16 18  1  0
 17 19  2  0
 17 20  1  0
 18 21  2  0
 18 24  1  0
 19 23  1  0
 20 22  2  0
 21 26  1  0
 22 25  1  0
 23 25  2  0
 24 27  2  0
 26 28  2  0
 27 28  1  0
M  END
$$$$
