
     RDKit          2D

 74 79  0  0  0  0  0  0  0  0999 V2000
   -6.0001    1.2432    0.0000 C   0  0  0  0  0  0  0  0  0  0  0  0
   -6.0001    2.0540    0.0000 C   0  0  0  0  0  0  0  0  0  0  0  0
   -6.7027    0.8108    0.0000 C   0  0  0  0  0  0  0  0  0  0  0  0
   -6.7027    2.4325    0.0000 C   0  0  0  0  0  0  0  0  0  0  0  0
   -7.4055    1.2432    0.0000 C   0  0  0  0  0  0  0  0  0  0  0  0
   -7.4055    2.0540    0.0000 C   0  0  0  0  0  0  0  0  0  0  0  0
   -5.2974    0.8108    0.0000 C   0  0  0  0  0  0  0  0  0  0  0  0
   -4.5946    1.2432    0.0000 N   0  0  0  0  0  0  0  0  0  0  0  0
   -5.2974    2.4325    0.0000 C   0  0  0  0  0  0  0  0  0  0  0  0
   -4.5946    2.0540    0.0000 C   0  0  0  0  0  0  0  0  0  0  0  0
   -5.2974    0.0000    0.0000 C   0  0  0  0  0  0  0  0  0  0  0  0
   -3.8919    0.8108    0.0000 C   0  0  0  0  0  0  0  0  0  0  0  0
   -3.1892    1.2432    0.0000 C   0  0  0  0  0  0  0  0  0  0  0  0
   -2.4325    0.8108    0.0000 C   0  0  0  0  0  0  0  0  0  0  0  0
   -1.7837    1.2432    0.0000 O   0  0  0  0  0  0  0  0  0  0  0  0
   -1.0271    0.8108    0.0000 C   0  0  0  0  0  0  0  0  0  0  0  0
   -0.3243    1.2432    0.0000 C   0  0  0  0  0  0  0  0  0  0  0  0
    0.3783    0.8108    0.0000 C   0  0  0  0  0  0  0  0  0  0  0  0
    1.0810    1.2432    0.0000 C   0  0  0  0  0  0  0  0  0  0  0  0
    1.7837    0.8108    0.0000 O   0  0  0  0  0  0  0  0  0  0  0  0
    2.4866    1.2432    0.0000 C   0  0  0  0  0  0  0  0  0  0  0  0
    3.1892    0.8108    0.0000 C   0  0  0  0  0  0  0  0  0  0  0  0
    3.8918    1.2432    0.0000 C   0  0  0  0  0  0  0  0  0  0  0  0
    4.5945    0.8108    0.0000 N   0  0  0  0  0  0  0  0  0  0  0  0
   -4.5946   -0.4324    0.0000 C   0  0  0  0  0  0  0  0  0  0  0  0
   -4.5946   -1.1891    0.0000 C   0  0  0  0  0  0  0  0  0  0  0  0
   -3.8919    0.0000    0.0000 C   0  0  0  0  0  0  0  0  0  0  0  0
   -3.8919   -1.6216    0.0000 C   0  0  0  0  0  0  0  0  0  0  0  0
   -3.1892   -0.4324    0.0000 C   0  0  0  0  0  0  0  0  0  0  0  0
   -3.1892   -1.1891    0.0000 C   0  0  0  0  0  0  0  0  0  0  0  0
   -6.7027    0.0000    0.0000 O   0  0  0  0  0  0  0  0  0  0  0  0
   -8.1082    0.8108    0.0000 O   0  0  0  0  0  0  0  0  0  0  0  0
   -8.1082    2.4325    0.0000 O   0  0  0  0  0  0  0  0  0  0  0  0
   -6.0001   -0.4324    0.0000 C   0  0  0  0  0  0  0  0  0  0  0  0
   -8.1082    0.0000    0.0000 C   0  0  0  0  0  0  0  0  0  0  0  0
   -8.1082    3.2433    0.0000 C   0  0  0  0  0  0  0  0  0  0  0  0
   -3.8919    1.6216    0.0000 C   0  0  0  0  0  0  0  0  0  0  0  0
   -2.4325   -1.6216    0.0000 O   0  0  0  0  0  0  0  0  0  0  0  0
   -2.4325    0.0000    0.0000 O   0  0  0  0  0  0  0  0  0  0  0  0
   -3.8919   -2.4325    0.0000 O   0  0  0  0  0  0  0  0  0  0  0  0
   -3.1892   -2.8107    0.0000 C   0  0  0  0  0  0  0  0  0  0  0  0
   -1.7837   -1.1891    0.0000 C   0  0  0  0  0  0  0  0  0  0  0  0
   -1.7837   -0.4324    0.0000 C   0  0  0  0  0  0  0  0  0  0  0  0
   -1.0271    0.0000    0.0000 O   0  0  0  0  0  0  0  0  0  0  0  0
    1.0810    2.0540    0.0000 O   0  0  0  0  0  0  0  0  0  0  0  0
    6.0001    0.8108    0.0000 C   0  0  0  0  0  0  0  0  0  0  0  0
    6.0001    1.6216    0.0000 C   0  0  0  0  0  0  0  0  0  0  0  0
    5.2973    0.4324    0.0000 C   0  0  0  0  0  0  0  0  0  0  0  0
    5.2973    2.0540    0.0000 C   0  0  0  0  0  0  0  0  0  0  0  0
    4.5945    1.6216    0.0000 C   0  0  0  0  0  0  0  0  0  0  0  0
    4.0409    0.3826    0.0000 C   0  0  0  0  0  0  0  0  0  0  0  0
    6.7026    0.4324    0.0000 C   0  0  0  0  0  0  0  0  0  0  0  0
    7.4055    0.8108    0.0000 C   0  0  0  0  0  0  0  0  0  0  0  0
    6.7026    2.0540    0.0000 C   0  0  0  0  0  0  0  0  0  0  0  0
    7.4055    1.6216    0.0000 C   0  0  0  0  0  0  0  0  0  0  0  0
    6.7026   -0.4324    0.0000 O   0  0  0  0  0  0  0  0  0  0  0  0
    8.1082    0.4324    0.0000 O   0  0  0  0  0  0  0  0  0  0  0  0
    8.1082    2.0540    0.0000 O   0  0  0  0  0  0  0  0  0  0  0  0
    6.0001   -0.8108    0.0000 C   0  0  0  0  0  0  0  0  0  0  0  0
    8.1082   -0.4324    0.0000 C   0  0  0  0  0  0  0  0  0  0  0  0
    8.1082    2.8648    0.0000 C   0  0  0  0  0  0  0  0  0  0  0  0
    5.2973   -0.4324    0.0000 C   0  0  0  0  0  0  0  0  0  0  0  0
    4.5945   -0.8108    0.0000 C   0  0  0  0  0  0  0  0  0  0  0  0
    3.8918   -0.4324    0.0000 C   0  0  0  0  0  0  0  0  0  0  0  0
    4.5945   -1.6216    0.0000 C   0  0  0  0  0  0  0  0  0  0  0  0
    3.1892   -0.8108    0.0000 C   0  0  0  0  0  0  0  0  0  0  0  0
    3.8918   -2.0540    0.0000 C   0  0  0  0  0  0  0  0  0  0  0  0
    3.1892   -1.6216    0.0000 C   0  0  0  0  0  0  0  0  0  0  0  0
    2.4866   -2.0540    0.0000 O   0  0  0  0  0  0  0  0  0  0  0  0
    3.8918   -2.8107    0.0000 O   0  0  0  0  0  0  0  0  0  0  0  0
    2.4866   -0.4324    0.0000 O   0  0  0  0  0  0  0  0  0  0  0  0
    3.1892   -3.2433    0.0000 C   0  0  0  0  0  0  0  0  0  0  0  0
    1.7837   -1.6216    0.0000 C   0  0  0  0  0  0  0  0  0  0  0  0
    1.7837   -0.8108    0.0000 C   0  0  0  0  0  0  0  0  0  0  0  0
  3  1  2  0
  7  1  1  0
  2  1  1  0
  4  2  2  0
  9  2  1  0
  5  3  1  0
 31  3  1  0
  6  4  1  0
  6  5  2  0
 32  5  1  0
 33  6  1  0
  8  7  1  0
  7 11  1  6
 10  8  1  0
  8 12  1  0
  8 37  1  6
 10  9  1  0
 25 11  1  0
 13 12  1  0
 14 13  1  0
 15 14  1  0
 16 15  1  0
 17 16  1  0
 44 16  2  0
 18 17  1  0
 19 18  1  0
 20 19  1  0
 45 19  2  0
 21 20  1  0
 22 21  1  0
 23 22  1  0
 24 23  1  0
 48 24  1  0
 50 24  1  0
 24 51  1  6
 26 25  2  0
 27 25  1  0
 28 26  1  0
 29 27  2  0
 30 28  2  0
 40 28  1  0
 30 29  1  0
 39 29  1  0
 38 30  1  0
 34 31  1  0
 35 32  1  0
 36 33  1  0
 42 38  1  0
 43 39  1  0
 41 40  1  0
 48 46  1  0
 52 46  2  0
 47 46  1  0
 49 47  1  0
 54 47  2  0
 48 62  1  6
 50 49  1  0
 53 52  1  0
 56 52  1  0
 55 53  2  0
 57 53  1  0
 55 54  1  0
 58 55  1  0
 59 56  1  0
 60 57  1  0
 61 58  1  0
 63 62  1  0
 64 63  2  0
 65 63  1  0
 66 64  1  0
 67 65  2  0
 68 66  2  0
 71 66  1  0
 68 67  1  0
 70 67  1  0
 69 68  1  0
 73 69  1  0
 72 70  1  0
 74 71  1  0
M  CHG  2   8   1  24   1
M  END
$$$$
