1175
     RDKit          2D

 24 26  0  0  1  0  0  0  0  0999 V2000
    7.9618    1.5353    0.0000 F   0  0  0  0  0  0  0  0  0  0  0  0
    5.7701   -1.0638    0.0000 O   0  0  0  0  0  0  0  0  0  0  0  0
    3.1681    1.5162    0.0000 N   0  0  0  0  0  0  0  0  0  0  0  0
    1.6500   -2.3013    0.0000 N   0  0  0  0  0  0  0  0  0  0  0  0
    5.2886   -0.3998    0.0000 C   0  0  0  0  0  0  0  0  0  0  0  0
    5.0351    0.3853    0.0000 C   0  0  0  0  0  0  0  0  0  0  0  0
    4.5080   -0.6513    0.0000 C   0  0  0  0  0  0  0  0  0  0  0  0
    4.5080   -1.4763    0.0000 C   0  0  0  0  0  0  0  0  0  0  0  0
    4.2284    0.5582    0.0000 C   0  0  0  0  0  0  0  0  0  0  0  0
    5.9569    0.0840    0.0000 C   0  0  0  0  0  0  0  0  0  0  0  0
    5.2886   -1.7277    0.0000 C   0  0  0  0  0  0  0  0  0  0  0  0
    3.9748    1.3433    0.0000 C   0  0  0  0  0  0  0  0  0  0  0  0
    3.7935   -0.2388    0.0000 C   0  0  0  0  0  0  0  0  0  0  0  0
    3.7935   -1.8888    0.0000 C   0  0  0  0  0  0  0  0  0  0  0  0
    5.8721    0.9046    0.0000 C   0  0  0  0  0  0  0  0  0  0  0  0
    6.7100   -0.2529    0.0000 C   0  0  0  0  0  0  0  0  0  0  0  0
    3.0790   -0.6513    0.0000 C   0  0  0  0  0  0  0  0  0  0  0  0
    3.0790   -1.4763    0.0000 C   0  0  0  0  0  0  0  0  0  0  0  0
    6.5404    1.3883    0.0000 C   0  0  0  0  0  0  0  0  0  0  0  0
    7.3783    0.2308    0.0000 C   0  0  0  0  0  0  0  0  0  0  0  0
    7.2935    1.0515    0.0000 C   0  0  0  0  0  0  0  0  0  0  0  0
    2.9145    2.3013    0.0000 C   0  0  0  0  0  0  0  0  0  0  0  0
    2.6150    0.9041    0.0000 C   0  0  0  0  0  0  0  0  0  0  0  0
    2.3645   -1.8888    0.0000 C   0  0  0  0  0  0  0  0  0  0  0  0
  1 21  1  0
  2  5  1  0
  2 11  1  0
  3 12  1  0
  3 22  1  0
  3 23  1  0
  4 24  3  0
  5  6  1  1
  5  7  1  0
  5 10  1  0
  6  9  1  0
  7  8  2  0
  7 13  1  0
  8 11  1  0
  8 14  1  0
  9 12  1  0
 10 15  2  0
 10 16  1  0
 13 17  2  0
 14 18  2  0
 15 19  1  0
 16 20  2  0
 17 18  1  0
 18 24  1  0
 19 21  2  0
 20 21  1  0
M  END
$$$$
