1403
     RDKit          2D

 23 25  0  0  1  0  0  0  0  0999 V2000
   12.2932  -12.4596    0.0000 C   0  0  0  0  0  0  0  0  0  0  0  0
   12.2932  -13.2846    0.0000 C   0  0  0  0  0  0  0  0  0  0  0  0
   13.0357  -13.6971    0.0000 C   0  0  0  0  0  0  0  0  0  0  0  0
   13.0357  -12.0472    0.0000 C   0  0  0  0  0  0  0  0  0  0  0  0
   13.7369  -12.4596    0.0000 C   0  0  0  0  0  0  0  0  0  0  0  0
   13.7369  -13.2846    0.0000 C   0  0  0  0  0  0  0  0  0  0  0  0
   14.4381  -13.6971    0.0000 S   0  0  0  0  0  0  0  0  0  0  0  0
   14.4381  -12.0472    0.0000 N   0  0  0  0  0  0  0  0  0  0  0  0
   15.1806  -12.4596    0.0000 C   0  0  0  0  0  0  0  0  0  0  0  0
   15.1806  -13.2846    0.0000 C   0  0  0  0  0  0  0  0  0  0  0  0
   15.8406  -13.6971    0.0000 C   0  0  0  0  0  0  0  0  0  0  0  0
   16.5831  -13.2846    0.0000 C   0  0  0  0  0  0  0  0  0  0  0  0
   16.5831  -12.4596    0.0000 C   0  0  0  0  0  0  0  0  0  0  0  0
   15.8818  -12.0472    0.0000 C   0  0  0  0  0  0  0  0  0  0  0  0
   14.4381  -11.2221    0.0000 C   0  0  0  0  0  0  0  0  0  0  0  0
   15.1806  -10.8097    0.0000 C   0  0  0  0  0  0  0  0  0  0  0  0
   15.1806   -9.9847    0.0000 C   0  0  0  0  0  0  0  0  0  0  0  0
   15.8818  -11.2221    0.0000 C   0  0  0  0  0  0  0  0  0  0  0  0
   15.8818   -9.5722    0.0000 N   0  0  0  0  0  0  0  0  0  0  0  0
   15.8818   -8.7472    0.0000 C   0  0  0  0  0  0  0  0  0  0  0  0
   16.6243   -9.9847    0.0000 C   0  0  0  0  0  0  0  0  0  0  0  0
   17.3030  -12.0479    0.0000 O   0  0  0  0  0  0  0  0  0  0  0  0
   18.0098  -12.4598    0.0000 C   0  0  0  0  0  0  0  0  0  0  0  0
 14  9  1  0
  2  3  2  0
  5  6  2  0
  6  7  1  0
  8 15  1  0
  7 10  1  0
 15 16  1  0
  9  8  1  0
 16 17  1  0
  8  5  1  0
 16 18  1  1
  3  6  1  0
 17 19  1  0
  5  4  1  0
 19 20  1  0
  4  1  2  0
 19 21  1  0
  1  2  1  0
  9 10  2  0
 10 11  1  0
 11 12  2  0
 12 13  1  0
 13 14  2  0
 13 22  1  0
 22 23  1  0
M  END
$$$$
