1072
     RDKit          2D

 51 53  0  0  1  0  0  0  0  0999 V2000
    5.2224   -1.2375    0.0000 O   0  0  0  0  0  0  0  0  0  0  0  0
    4.5080   -1.6500    0.0000 O   0  0  0  0  0  0  0  0  0  0  0  0
    8.0804   -1.2375    0.0000 O   0  0  0  0  0  0  0  0  0  0  0  0
    2.3645   -3.7126    0.0000 O   0  0  0  0  0  0  0  0  0  0  0  0
    5.9370   -4.1251    0.0000 O   0  0  0  0  0  0  0  0  0  0  0  0
    1.6500   -2.4751    0.0000 O   0  0  0  0  0  0  0  0  0  0  0  0
    7.3659   -4.1251    0.0000 O   0  0  0  0  0  0  0  0  0  0  0  0
    3.7935   -0.4125    0.0000 N   0  0  0  0  0  0  0  0  0  0  0  0
    6.6515   -0.4125    0.0000 N   0  0  0  0  0  0  0  0  0  0  0  0
    3.0791   -2.4751    0.0000 N   0  0  0  0  0  0  0  0  0  0  0  0
    6.6515   -1.2375    0.0000 N   0  0  0  0  0  0  0  0  0  0  0  0
    6.6515   -2.8876    0.0000 N   0  0  0  0  0  0  0  0  0  0  0  0
    8.0804    3.7126    0.0000 N   0  0  0  0  0  0  0  0  0  0  0  0
    2.3645   -1.2375    0.0000 C   0  0  0  0  0  0  0  0  0  0  0  0
    4.5080    0.0000    0.0000 C   0  0  0  0  0  0  0  0  0  0  0  0
    3.0791   -1.6500    0.0000 C   0  0  0  0  0  0  0  0  0  0  0  0
    5.2224   -0.4125    0.0000 C   0  0  0  0  0  0  0  0  0  0  0  0
    8.0804   -2.8876    0.0000 C   0  0  0  0  0  0  0  0  0  0  0  0
    5.9370    0.0000    0.0000 C   0  0  0  0  0  0  0  0  0  0  0  0
    7.3659   -2.4751    0.0000 C   0  0  0  0  0  0  0  0  0  0  0  0
    4.5080    0.8250    0.0000 C   0  0  0  0  0  0  0  0  0  0  0  0
    3.7935   -1.2375    0.0000 C   0  0  0  0  0  0  0  0  0  0  0  0
    1.6500   -0.8250    0.0000 C   0  0  0  0  0  0  0  0  0  0  0  0
    1.9520   -1.9520    0.0000 C   0  0  0  0  0  0  0  0  0  0  0  0
    2.7770   -0.5231    0.0000 C   0  0  0  0  0  0  0  0  0  0  0  0
    7.3659   -1.6500    0.0000 C   0  0  0  0  0  0  0  0  0  0  0  0
    8.4929   -2.1731    0.0000 C   0  0  0  0  0  0  0  0  0  0  0  0
    7.6679   -3.6020    0.0000 C   0  0  0  0  0  0  0  0  0  0  0  0
    8.7949   -3.3001    0.0000 C   0  0  0  0  0  0  0  0  0  0  0  0
    7.3659    0.0000    0.0000 C   0  0  0  0  0  0  0  0  0  0  0  0
    3.7935    1.2375    0.0000 C   0  0  0  0  0  0  0  0  0  0  0  0
    7.3659    0.8250    0.0000 C   0  0  0  0  0  0  0  0  0  0  0  0
    2.3645   -2.8876    0.0000 C   0  0  0  0  0  0  0  0  0  0  0  0
    3.0791    0.8250    0.0000 C   0  0  0  0  0  0  0  0  0  0  0  0
    3.7935    2.0625    0.0000 C   0  0  0  0  0  0  0  0  0  0  0  0
    6.6515   -3.7126    0.0000 C   0  0  0  0  0  0  0  0  0  0  0  0
    6.6515    1.2375    0.0000 C   0  0  0  0  0  0  0  0  0  0  0  0
    8.0804    1.2375    0.0000 C   0  0  0  0  0  0  0  0  0  0  0  0
    2.3645    1.2375    0.0000 C   0  0  0  0  0  0  0  0  0  0  0  0
    3.0791    2.4751    0.0000 C   0  0  0  0  0  0  0  0  0  0  0  0
    2.3645    2.0625    0.0000 C   0  0  0  0  0  0  0  0  0  0  0  0
    6.6515    2.0625    0.0000 C   0  0  0  0  0  0  0  0  0  0  0  0
    8.0804    2.0625    0.0000 C   0  0  0  0  0  0  0  0  0  0  0  0
    7.3659    2.4751    0.0000 C   0  0  0  0  0  0  0  0  0  0  0  0
    1.6500   -4.1251    0.0000 C   0  0  0  0  0  0  0  0  0  0  0  0
    7.3659    3.3001    0.0000 C   0  0  0  0  0  0  0  0  0  0  0  0
    5.9370   -4.9501    0.0000 C   0  0  0  0  0  0  0  0  0  0  0  0
    6.6515    3.7126    0.0000 C   0  0  0  0  0  0  0  0  0  0  0  0
    6.6515    4.5376    0.0000 C   0  0  0  0  0  0  0  0  0  0  0  0
    8.0804    4.5376    0.0000 C   0  0  0  0  0  0  0  0  0  0  0  0
    7.3659    4.9501    0.0000 C   0  0  0  0  0  0  0  0  0  0  0  0
 17  1  1  6
  2 22  2  0
  3 26  2  0
  4 33  1  0
  4 45  1  0
  5 36  1  0
  5 47  1  0
  6 33  2  0
  7 36  2  0
 15  8  1  0
  8 22  1  0
  9 11  1  0
  9 19  1  0
  9 30  1  0
 16 10  1  1
 10 33  1  0
 11 26  1  0
 20 12  1  6
 12 36  1  0
 13 46  2  0
 13 50  1  0
 14 16  1  0
 14 23  1  0
 14 24  1  0
 14 25  1  0
 15 17  1  0
 15 21  1  1
 16 22  1  0
 17 19  1  0
 18 20  1  0
 18 27  1  0
 18 28  1  0
 18 29  1  0
 20 26  1  0
 21 31  1  0
 30 32  1  0
 31 34  2  0
 31 35  1  0
 32 37  2  0
 32 38  1  0
 34 39  1  0
 35 40  2  0
 37 42  1  0
 38 43  2  0
 39 41  2  0
 40 41  1  0
 42 44  2  0
 43 44  1  0
 44 46  1  0
 46 48  1  0
 48 49  2  0
 49 51  1  0
 50 51  2  0
M  END
$$$$
