1423
     RDKit          2D

 17 17  0  0  1  0  0  0  0  0999 V2000
    3.9410    0.7486    0.0000 S   0  0  0  0  0  0  0  0  0  0  0  0
    2.3174    1.3256    0.0000 S   0  0  0  0  0  0  0  0  0  0  0  0
    4.2841   -0.8653    0.0000 O   0  0  0  0  0  0  0  0  0  0  0  0
    4.3826    2.1076    0.0000 O   0  0  0  0  0  0  0  0  0  0  0  0
    6.8095   -2.4371    0.0000 O   0  0  0  0  0  0  0  0  0  0  0  0
    7.2510   -1.0781    0.0000 O   0  0  0  0  0  0  0  0  0  0  0  0
    5.6818   -0.5682    0.0000 N   0  0  0  0  0  0  0  0  0  0  0  0
    4.7257    0.4937    0.0000 C   0  0  0  0  0  0  0  0  0  0  0  0
    4.8972   -0.3133    0.0000 C   0  0  0  0  0  0  0  0  0  0  0  0
    5.3387    1.0457    0.0000 C   0  0  0  0  0  0  0  0  0  0  0  0
    5.8533   -1.3752    0.0000 C   0  0  0  0  0  0  0  0  0  0  0  0
    3.7695    1.5556    0.0000 C   0  0  0  0  0  0  0  0  0  0  0  0
    2.9848    1.8105    0.0000 C   0  0  0  0  0  0  0  0  0  0  0  0
    2.7299    2.5952    0.0000 C   0  0  0  0  0  0  0  0  0  0  0  0
    6.6379   -1.6301    0.0000 C   0  0  0  0  0  0  0  0  0  0  0  0
    1.9049    2.5952    0.0000 C   0  0  0  0  0  0  0  0  0  0  0  0
    1.6500    1.8105    0.0000 C   0  0  0  0  0  0  0  0  0  0  0  0
  1  8  1  0
  1 12  1  0
  2 13  1  0
  2 17  1  0
  3  9  2  0
  4 12  2  0
  5 15  1  0
  6 15  2  0
  7  9  1  0
  7 11  1  0
  8  9  1  0
  8 10  1  0
 11 15  1  0
 12 13  1  0
 13 14  2  0
 14 16  1  0
 16 17  2  0
M  END
$$$$
