1600
     RDKit          2D

 18 19  0  0  1  0  0  0  0  0999 V2000
    3.1652    0.9447    0.0000 S   0  0  0  0  0  0  0  0  0  0  0  0
    5.4638    2.7098    0.0000 O   0  0  0  0  0  0  0  0  0  0  0  0
    1.6500    0.1242    0.0000 O   0  0  0  0  0  0  0  0  0  0  0  0
    5.6132    1.2888    0.0000 O   0  0  0  0  0  0  0  0  0  0  0  0
    4.3078    1.8699    0.0000 C   0  0  0  0  0  0  0  0  0  0  0  0
    3.9722    1.1162    0.0000 C   0  0  0  0  0  0  0  0  0  0  0  0
    3.0790    0.1242    0.0000 C   0  0  0  0  0  0  0  0  0  0  0  0
    4.3847    0.4018    0.0000 C   0  0  0  0  0  0  0  0  0  0  0  0
    3.8229    2.5374    0.0000 C   0  0  0  0  0  0  0  0  0  0  0  0
    3.8327   -0.2114    0.0000 C   0  0  0  0  0  0  0  0  0  0  0  0
    2.3645   -0.2883    0.0000 C   0  0  0  0  0  0  0  0  0  0  0  0
    5.1283    1.9562    0.0000 C   0  0  0  0  0  0  0  0  0  0  0  0
    2.3645   -1.1133    0.0000 C   0  0  0  0  0  0  0  0  0  0  0  0
    3.0790   -1.5258    0.0000 C   0  0  0  0  0  0  0  0  0  0  0  0
    1.6500   -1.5258    0.0000 C   0  0  0  0  0  0  0  0  0  0  0  0
    3.0790   -2.3508    0.0000 C   0  0  0  0  0  0  0  0  0  0  0  0
    1.6500   -2.3508    0.0000 C   0  0  0  0  0  0  0  0  0  0  0  0
    2.3645   -2.7633    0.0000 C   0  0  0  0  0  0  0  0  0  0  0  0
  1  6  1  0
  1  7  1  0
  2 12  1  0
  3 11  2  0
  4 12  2  0
  5  6  1  0
  5  9  1  0
  5 12  1  0
  6  8  2  0
  7 10  2  0
  7 11  1  0
  8 10  1  0
 11 13  1  0
 13 14  2  0
 13 15  1  0
 14 16  1  0
 15 17  2  0
 16 18  2  0
 17 18  1  0
M  END
$$$$
