1544
     RDKit          2D

 23 25  0  0  0  0  0  0  0  0999 V2000
    3.8786   -1.2313    0.0000 F   0  0  0  0  0  0  0  0  0  0  0  0
    2.6107    2.5929    0.0000 O   0  0  0  0  0  0  0  0  0  0  0  0
    2.1373   -2.5929    0.0000 O   0  0  0  0  0  0  0  0  0  0  0  0
    3.5619   -2.4806    0.0000 O   0  0  0  0  0  0  0  0  0  0  0  0
    2.4543    1.2046    0.0000 N   0  0  0  0  0  0  0  0  0  0  0  0
    4.3081    1.2046    0.0000 N   0  0  0  0  0  0  0  0  0  0  0  0
    2.8172   -2.1255    0.0000 N   0  0  0  0  0  0  0  0  0  0  0  0
    3.3812    0.0423    0.0000 C   0  0  0  0  0  0  0  0  0  0  0  0
    2.6379    0.4003    0.0000 C   0  0  0  0  0  0  0  0  0  0  0  0
    4.1245    0.4003    0.0000 C   0  0  0  0  0  0  0  0  0  0  0  0
    3.4586   -0.8135    0.0000 C   0  0  0  0  0  0  0  0  0  0  0  0
    3.7937    1.8496    0.0000 C   0  0  0  0  0  0  0  0  0  0  0  0
    1.9205   -0.0728    0.0000 C   0  0  0  0  0  0  0  0  0  0  0  0
    2.9687    1.8496    0.0000 C   0  0  0  0  0  0  0  0  0  0  0  0
    4.7695   -0.1141    0.0000 C   0  0  0  0  0  0  0  0  0  0  0  0
    2.7524   -1.3031    0.0000 C   0  0  0  0  0  0  0  0  0  0  0  0
    1.9781   -0.9302    0.0000 C   0  0  0  0  0  0  0  0  0  0  0  0
    1.6500    1.3881    0.0000 C   0  0  0  0  0  0  0  0  0  0  0  0
    4.6466   -0.9299    0.0000 C   0  0  0  0  0  0  0  0  0  0  0  0
    5.5375    0.1873    0.0000 C   0  0  0  0  0  0  0  0  0  0  0  0
    5.2915   -1.4442    0.0000 C   0  0  0  0  0  0  0  0  0  0  0  0
    6.1825   -0.3271    0.0000 C   0  0  0  0  0  0  0  0  0  0  0  0
    6.0595   -1.1429    0.0000 C   0  0  0  0  0  0  0  0  0  0  0  0
  1 19  1  0
  2 14  2  0
  3  7  1  0
  4  7  2  0
  5  9  1  0
  5 14  1  0
  5 18  1  0
  6 10  2  0
  6 12  1  0
  7 16  1  0
  8  9  2  0
  8 10  1  0
  8 11  1  0
  9 13  1  0
 10 15  1  0
 11 16  2  0
 12 14  1  0
 13 17  2  0
 15 19  2  0
 15 20  1  0
 16 17  1  0
 19 21  1  0
 20 22  2  0
 21 23  2  0
 22 23  1  0
M  CHG  2   3  -1   7   1
M  END
$$$$
