
     RDKit          2D

 27 28  0  0  1  0  0  0  0  0999 V2000
    2.1434   -0.4125    0.0000 C   0  0  0  0  0  0  0  0  0  0  0  0
    5.2101   -6.4143    0.0000 C   0  0  0  0  0  0  0  0  0  0  0  0
    1.9605   -4.4120    0.0000 C   0  0  0  0  0  0  0  0  0  0  0  0
    8.4920   -6.0694    0.0000 C   0  0  0  0  0  0  0  0  0  0  0  0
    2.1434   -1.2375    0.0000 C   0  0  0  0  0  0  0  0  0  0  0  0
    2.8579   -1.6500    0.0000 C   0  0  0  0  0  0  0  0  0  0  0  0
    3.5253   -2.9599    0.0000 C   0  0  0  0  0  0  0  0  0  0  0  0
    2.1904   -2.9599    0.0000 C   0  0  0  0  0  0  0  0  0  0  0  0
    4.7252   -5.7469    0.0000 C   0  0  0  0  0  0  0  0  0  0  0  0
    2.8579   -2.4750    0.0000 C   0  0  0  0  0  0  0  0  0  0  0  0
    3.2704   -3.7445    0.0000 C   0  0  0  0  0  0  0  0  0  0  0  0
    5.0607   -4.9932    0.0000 C   0  0  0  0  0  0  0  0  0  0  0  0
    7.0372   -4.0670    0.0000 C   0  0  0  0  0  0  0  0  0  0  0  0
    6.2167   -4.1533    0.0000 C   0  0  0  0  0  0  0  0  0  0  0  0
    7.5222   -4.7345    0.0000 C   0  0  0  0  0  0  0  0  0  0  0  0
    5.8812   -4.9070    0.0000 C   0  0  0  0  0  0  0  0  0  0  0  0
    3.7553   -4.4120    0.0000 C   0  0  0  0  0  0  0  0  0  0  0  0
    7.1866   -5.4882    0.0000 C   0  0  0  0  0  0  0  0  0  0  0  0
    3.9047   -5.8331    0.0000 Cl  0  0  0  0  0  0  0  0  0  0  0  0
    4.5758   -4.3257    0.0000 N   0  0  0  0  0  0  0  0  0  0  0  0
    2.4454   -3.7445    0.0000 N   0  0  0  0  0  0  0  0  0  0  0  0
    7.3728   -3.3134    0.0000 O   0  0  0  0  0  0  0  0  0  0  0  0
    5.7318   -3.4858    0.0000 O   0  0  0  0  0  0  0  0  0  0  0  0
    8.3426   -4.6482    0.0000 O   0  0  0  0  0  0  0  0  0  0  0  0
    3.4197   -5.1657    0.0000 O   0  0  0  0  0  0  0  0  0  0  0  0
    6.3661   -5.5744    0.0000 O   0  0  0  0  0  0  0  0  0  0  0  0
    7.6715   -6.1556    0.0000 S   0  0  0  0  0  0  0  0  0  0  0  0
  5  1  1  0
  6  5  1  0
  9  2  1  6
 10  6  1  6
 10  7  1  0
 10  8  1  0
 11  7  1  0
 12  9  1  0
 14 13  1  0
 15 13  1  0
 16 12  1  0
 16 14  1  0
 11 17  1  1
 18 15  1  0
  9 19  1  0
 12 20  1  1
 20 17  2  3
 21  3  1  0
 21  8  1  0
 21 11  1  0
 13 22  1  6
 14 23  1  6
 15 24  1  1
 17 25  1  0
 16 26  1  6
 26 18  1  0
 27  4  1  0
 18 27  1  1
M  END
$$$$
