1621
     RDKit          2D

 32 35  0  0  0  0  0  0  0  0999 V2000
    5.9361   -3.5410    0.0000 S   0  0  0  0  0  0  0  0  0  0  0  0
    8.8480   -1.8712    0.0000 S   0  0  0  0  0  0  0  0  0  0  0  0
    1.6498    3.0581    0.0000 O   0  0  0  0  0  0  0  0  0  0  0  0
    8.4328   -1.1584    0.0000 O   0  0  0  0  0  0  0  0  0  0  0  0
    9.2631   -2.5840    0.0000 O   0  0  0  0  0  0  0  0  0  0  0  0
    4.5073    0.5834    0.0000 N   0  0  0  0  0  0  0  0  0  0  0  0
    5.9361   -1.8912    0.0000 N   0  0  0  0  0  0  0  0  0  0  0  0
    9.5608   -1.4561    0.0000 N   0  0  0  0  0  0  0  0  0  0  0  0
    3.0786    1.4083    0.0000 C   0  0  0  0  0  0  0  0  0  0  0  0
    3.7929    1.8208    0.0000 C   0  0  0  0  0  0  0  0  0  0  0  0
    3.0786    0.5834    0.0000 C   0  0  0  0  0  0  0  0  0  0  0  0
    4.5073    1.4083    0.0000 C   0  0  0  0  0  0  0  0  0  0  0  0
    3.7929    0.1710    0.0000 C   0  0  0  0  0  0  0  0  0  0  0  0
    2.3641    1.8208    0.0000 C   0  0  0  0  0  0  0  0  0  0  0  0
    5.2216    0.1710    0.0000 C   0  0  0  0  0  0  0  0  0  0  0  0
    5.2216   -0.6539    0.0000 C   0  0  0  0  0  0  0  0  0  0  0  0
    2.3641    2.6456    0.0000 C   0  0  0  0  0  0  0  0  0  0  0  0
    5.9361   -1.0664    0.0000 C   0  0  0  0  0  0  0  0  0  0  0  0
    6.6504   -2.3037    0.0000 C   0  0  0  0  0  0  0  0  0  0  0  0
    5.2216   -2.3037    0.0000 C   0  0  0  0  0  0  0  0  0  0  0  0
    6.6504   -3.1286    0.0000 C   0  0  0  0  0  0  0  0  0  0  0  0
    5.2216   -3.1286    0.0000 C   0  0  0  0  0  0  0  0  0  0  0  0
    7.3878   -1.8626    0.0000 C   0  0  0  0  0  0  0  0  0  0  0  0
    8.1352   -2.2865    0.0000 C   0  0  0  0  0  0  0  0  0  0  0  0
    4.4843   -1.8626    0.0000 C   0  0  0  0  0  0  0  0  0  0  0  0
    7.3878   -3.5695    0.0000 C   0  0  0  0  0  0  0  0  0  0  0  0
    8.1352   -3.1457    0.0000 C   0  0  0  0  0  0  0  0  0  0  0  0
    4.4843   -3.5695    0.0000 C   0  0  0  0  0  0  0  0  0  0  0  0
    3.7368   -2.2865    0.0000 C   0  0  0  0  0  0  0  0  0  0  0  0
    3.7368   -3.1457    0.0000 C   0  0  0  0  0  0  0  0  0  0  0  0
   10.2767   -1.8657    0.0000 C   0  0  0  0  0  0  0  0  0  0  0  0
    9.5576   -0.6312    0.0000 C   0  0  0  0  0  0  0  0  0  0  0  0
  1 21  1  0
  1 22  1  0
  2  4  2  0
  2  5  2  0
  2  8  1  0
  2 24  1  0
  3 17  1  0
  6 12  1  0
  6 13  1  0
  6 15  1  0
  7 18  1  0
  7 19  1  0
  7 20  1  0
  8 31  1  0
  8 32  1  0
  9 10  1  0
  9 11  1  0
  9 14  1  0
 10 12  1  0
 11 13  1  0
 14 17  1  0
 15 16  1  0
 16 18  1  0
 19 21  2  0
 19 23  1  0
 20 22  2  0
 20 25  1  0
 21 26  1  0
 22 28  1  0
 23 24  2  0
 24 27  1  0
 25 29  2  0
 26 27  2  0
 28 30  2  0
 29 30  1  0
M  END
$$$$
