1325
     RDKit          2D

 18 19  0  0  1  0  0  0  0  0999 V2000
    6.7049    1.0624    0.0000 Cl  0  0  0  0  0  0  0  0  0  0  0  0
    6.7049   -0.6272    0.0000 S   0  0  0  0  0  0  0  0  0  0  0  0
    3.7929   -1.4322    0.0000 O   0  0  0  0  0  0  0  0  0  0  0  0
    7.1200    0.0856    0.0000 O   0  0  0  0  0  0  0  0  0  0  0  0
    6.2896   -1.3400    0.0000 O   0  0  0  0  0  0  0  0  0  0  0  0
    3.7929    1.0425    0.0000 N   0  0  0  0  0  0  0  0  0  0  0  0
    3.0786   -0.1949    0.0000 N   0  0  0  0  0  0  0  0  0  0  0  0
    7.4176   -1.0425    0.0000 N   0  0  0  0  0  0  0  0  0  0  0  0
    3.0786    0.6300    0.0000 C   0  0  0  0  0  0  0  0  0  0  0  0
    4.5073    0.6300    0.0000 C   0  0  0  0  0  0  0  0  0  0  0  0
    2.3641    1.0425    0.0000 C   0  0  0  0  0  0  0  0  0  0  0  0
    4.5073   -0.1949    0.0000 C   0  0  0  0  0  0  0  0  0  0  0  0
    3.7929   -0.6073    0.0000 C   0  0  0  0  0  0  0  0  0  0  0  0
    5.2446   -0.6359    0.0000 C   0  0  0  0  0  0  0  0  0  0  0  0
    5.9921   -0.2121    0.0000 C   0  0  0  0  0  0  0  0  0  0  0  0
    5.2446    1.0711    0.0000 C   0  0  0  0  0  0  0  0  0  0  0  0
    5.9921    0.6472    0.0000 C   0  0  0  0  0  0  0  0  0  0  0  0
    1.6498    0.6300    0.0000 C   0  0  0  0  0  0  0  0  0  0  0  0
  1 17  1  0
  2  4  2  0
  2  5  2  0
  2  8  1  0
  2 15  1  0
  3 13  2  0
  6  9  1  0
  6 10  1  0
  7  9  1  0
  7 13  1  0
  9 11  1  0
 10 12  2  0
 10 16  1  0
 11 18  1  0
 12 13  1  0
 12 14  1  0
 14 15  2  0
 15 17  1  0
 16 17  2  0
M  END
$$$$
