
     RDKit          2D

 14 14  0  0  0  0  0  0  0  0999 V2000
   -2.1474    0.3659    0.0000 C   0  0  0  0  0  0  0  0  0  0  0  0
   -2.8649    0.7683    0.0000 C   0  0  0  0  0  0  0  0  0  0  0  0
   -0.7222    0.3902    0.0000 N   0  0  0  0  0  0  0  0  0  0  0  0
    0.0000   -0.0024    0.0000 C   0  0  0  0  0  0  0  0  0  0  0  0
    0.6981    0.4193    0.0000 C   0  0  0  0  0  0  0  0  0  0  0  0
   -1.4251   -0.0315    0.0000 C   0  0  0  0  0  0  0  0  0  0  0  0
    1.4156    0.0121    0.0000 C   0  0  0  0  0  0  0  0  0  0  0  0
   -0.7222    1.2095    0.0000 C   0  0  0  0  0  0  0  0  0  0  0  0
    0.0000   -0.8314    0.0000 C   0  0  0  0  0  0  0  0  0  0  0  0
    2.1281    0.4193    0.0000 C   0  0  0  0  0  0  0  0  0  0  0  0
    1.4107   -0.8168    0.0000 C   0  0  0  0  0  0  0  0  0  0  0  0
    2.1426   -1.2095    0.0000 C   0  0  0  0  0  0  0  0  0  0  0  0
    2.8407    0.0412    0.0000 C   0  0  0  0  0  0  0  0  0  0  0  0
    2.8649   -0.7877    0.0000 C   0  0  0  0  0  0  0  0  0  0  0  0
  2  1  3  0
  3  6  1  0
  4  3  1  0
  5  4  1  0
  6  1  1  0
  7  5  1  0
  8  3  1  0
  4  9  1  1
 10  7  2  0
 11  7  1  0
 12 11  2  0
 13 10  1  0
 14 13  2  0
 14 12  1  0
M  END
$$$$
