1425
     RDKit          2D

 23 25  0  0  1  0  0  0  0  0999 V2000
    4.4999   -0.8410    0.0000 O   0  0  0  0  0  0  0  0  0  0  0  0
    5.2144   -2.0786    0.0000 O   0  0  0  0  0  0  0  0  0  0  0  0
    3.8325    2.1190    0.0000 N   0  0  0  0  0  0  0  0  0  0  0  0
    5.2144    0.3965    0.0000 N   0  0  0  0  0  0  0  0  0  0  0  0
    8.1385   -0.5896    0.0000 N   0  0  0  0  0  0  0  0  0  0  0  0
    8.1385   -1.9175    0.0000 N   0  0  0  0  0  0  0  0  0  0  0  0
    8.6200   -1.2535    0.0000 N   0  0  0  0  0  0  0  0  0  0  0  0
    4.4999    1.6340    0.0000 C   0  0  0  0  0  0  0  0  0  0  0  0
    5.1673    2.1190    0.0000 C   0  0  0  0  0  0  0  0  0  0  0  0
    4.9124    2.9036    0.0000 C   0  0  0  0  0  0  0  0  0  0  0  0
    4.0874    2.9036    0.0000 C   0  0  0  0  0  0  0  0  0  0  0  0
    4.4999    0.8090    0.0000 C   0  0  0  0  0  0  0  0  0  0  0  0
    3.0478    1.8640    0.0000 C   0  0  0  0  0  0  0  0  0  0  0  0
    2.4347    2.4161    0.0000 C   0  0  0  0  0  0  0  0  0  0  0  0
    5.2144   -0.4285    0.0000 C   0  0  0  0  0  0  0  0  0  0  0  0
    5.9288   -0.8410    0.0000 C   0  0  0  0  0  0  0  0  0  0  0  0
    1.6500    2.1611    0.0000 C   0  0  0  0  0  0  0  0  0  0  0  0
    5.9288   -1.6660    0.0000 C   0  0  0  0  0  0  0  0  0  0  0  0
    6.6434   -0.4285    0.0000 C   0  0  0  0  0  0  0  0  0  0  0  0
    7.3578   -0.8410    0.0000 C   0  0  0  0  0  0  0  0  0  0  0  0
    6.6434   -2.0786    0.0000 C   0  0  0  0  0  0  0  0  0  0  0  0
    7.3578   -1.6660    0.0000 C   0  0  0  0  0  0  0  0  0  0  0  0
    5.2144   -2.9036    0.0000 C   0  0  0  0  0  0  0  0  0  0  0  0
  1 15  2  0
  2 18  1  0
  2 23  1  0
  3  8  1  0
  3 11  1  0
  3 13  1  0
  4 12  1  0
  4 15  1  0
  5  7  1  0
  5 20  2  0
  6  7  1  0
  6 22  2  0
  8  9  1  0
  8 12  1  0
  9 10  1  0
 10 11  1  0
 13 14  1  0
 14 17  2  3
 15 16  1  0
 16 18  1  0
 16 19  2  0
 18 21  2  0
 19 20  1  0
 20 22  1  0
 21 22  1  0
M  END
$$$$
