
     RDKit          2D

 33 36  0  0  1  0  0  0  0  0999 V2000
   10.5351   -8.4707    0.0000 C   0  0  0  0  0  0  0  0  0  0  0  0
   10.5351   -7.6458    0.0000 C   0  0  0  0  0  0  0  0  0  0  0  0
    9.8206   -7.2333    0.0000 S   0  0  0  0  0  0  0  0  0  0  0  0
    9.8206   -8.8833    0.0000 C   0  0  0  0  0  0  0  0  0  0  0  0
    9.1061   -8.4707    0.0000 N   0  0  0  0  0  0  0  0  0  0  0  0
    9.1061   -7.6458    0.0000 C   0  0  0  0  0  0  0  0  0  0  0  0
    8.2811   -7.6458    0.0000 C   0  0  0  0  0  0  0  0  0  0  0  0
    8.2811   -8.4707    0.0000 C   0  0  0  0  0  0  0  0  0  0  0  0
    7.5666   -8.8833    0.0000 O   0  0  0  0  0  0  0  0  0  0  0  0
    6.8522   -7.6458    0.0000 C   0  0  0  0  0  0  0  0  0  0  0  0
    6.1377   -7.2333    0.0000 C   0  0  0  0  0  0  0  0  0  0  0  0
    6.8522   -8.4707    0.0000 O   0  0  0  0  0  0  0  0  0  0  0  0
    6.1377   -6.4083    0.0000 N   0  0  0  0  0  0  0  0  0  0  0  0
    5.4232   -7.6458    0.0000 C   0  0  0  0  0  0  0  0  0  0  0  0
    6.8522   -5.9957    0.0000 O   0  0  0  0  0  0  0  0  0  0  0  0
    5.3370   -8.4663    0.0000 C   0  0  0  0  0  0  0  0  0  0  0  0
    4.5300   -8.6378    0.0000 S   0  0  0  0  0  0  0  0  0  0  0  0
    4.1175   -7.9233    0.0000 C   0  0  0  0  0  0  0  0  0  0  0  0
    4.6695   -7.3102    0.0000 N   0  0  0  0  0  0  0  0  0  0  0  0
    9.8206   -9.7083    0.0000 C   0  0  0  0  0  0  0  0  0  0  0  0
    9.1061  -10.1208    0.0000 O   0  0  0  0  0  0  0  0  0  0  0  0
   10.5351  -10.1208    0.0000 O   0  0  0  0  0  0  0  0  0  0  0  0
   11.2496   -8.8833    0.0000 C   0  0  0  0  0  0  0  0  0  0  0  0
   11.9641   -8.4707    0.0000 C   0  0  0  0  0  0  0  0  0  0  0  0
   11.9641   -7.6458    0.0000 C   0  0  0  0  0  0  0  0  0  0  0  0
   12.6315   -7.1609    0.0000 C   0  0  0  0  0  0  0  0  0  0  0  0
   12.3766   -6.3762    0.0000 N   0  0  0  0  0  0  0  0  0  0  0  0
   11.5515   -6.3762    0.0000 C   0  0  0  0  0  0  0  0  0  0  0  0
   11.2966   -7.1609    0.0000 S   0  0  0  0  0  0  0  0  0  0  0  0
   13.4161   -7.4158    0.0000 C   0  0  0  0  0  0  0  0  0  0  0  0
    7.5666   -7.2333    0.0000 N   0  0  0  0  0  0  0  0  0  0  0  0
    3.2970   -7.8371    0.0000 N   0  0  0  0  0  0  0  0  0  0  0  0
    6.8522   -5.1710    0.0000 C   0  0  0  0  0  0  0  0  0  0  0  0
  1  4  2  0
  2  3  1  0
  6  3  1  1
  5  4  1  0
  5  6  1  0
  6  7  1  0
  7  8  1  0
  8  5  1  0
  8  9  2  0
 10 11  1  0
 10 12  2  0
 11 13  2  0
 11 14  1  0
 13 15  1  0
 14 16  2  0
 16 17  1  0
 17 18  1  0
 18 19  2  0
 19 14  1  0
  4 20  1  0
 20 21  1  0
 20 22  2  0
  1 23  1  0
 23 24  2  0
 24 25  1  0
 25 26  2  0
 26 27  1  0
 27 28  2  0
 28 29  1  0
 29 25  1  0
 26 30  1  0
  1  2  1  0
  7 31  1  1
 31 10  1  0
 18 32  1  0
 15 33  1  0
M  END
$$$$
