1139
     RDKit          2D

 28 30  0  0  1  0  0  0  0  0999 V2000
    5.2224   -0.5485    0.0000 S   0  0  0  0  0  0  0  0  0  0  0  0
    9.5277   -0.8848    0.0000 S   0  0  0  0  0  0  0  0  0  0  0  0
    7.3509    1.2769    0.0000 O   0  0  0  0  0  0  0  0  0  0  0  0
    3.0790    0.6890    0.0000 O   0  0  0  0  0  0  0  0  0  0  0  0
    4.5079    2.3390    0.0000 O   0  0  0  0  0  0  0  0  0  0  0  0
    5.9369    2.3390    0.0000 O   0  0  0  0  0  0  0  0  0  0  0  0
    8.3633    0.2843    0.0000 O   0  0  0  0  0  0  0  0  0  0  0  0
    2.3645    1.9265    0.0000 O   0  0  0  0  0  0  0  0  0  0  0  0
    5.9369    0.6890    0.0000 N   0  0  0  0  0  0  0  0  0  0  0  0
    7.3509   -0.7241    0.0000 N   0  0  0  0  0  0  0  0  0  0  0  0
   11.2742   -2.6385    0.0000 N   0  0  0  0  0  0  0  0  0  0  0  0
    5.9369   -0.1360    0.0000 C   0  0  0  0  0  0  0  0  0  0  0  0
    6.7687   -0.1395    0.0000 C   0  0  0  0  0  0  0  0  0  0  0  0
    6.7687    0.6923    0.0000 C   0  0  0  0  0  0  0  0  0  0  0  0
    5.2224    1.1015    0.0000 C   0  0  0  0  0  0  0  0  0  0  0  0
    4.5079    0.6890    0.0000 C   0  0  0  0  0  0  0  0  0  0  0  0
    4.5079   -0.1360    0.0000 C   0  0  0  0  0  0  0  0  0  0  0  0
    3.7935    1.1015    0.0000 C   0  0  0  0  0  0  0  0  0  0  0  0
    5.2224    1.9265    0.0000 C   0  0  0  0  0  0  0  0  0  0  0  0
    8.1482   -0.5122    0.0000 C   0  0  0  0  0  0  0  0  0  0  0  0
    8.7304   -1.0968    0.0000 C   0  0  0  0  0  0  0  0  0  0  0  0
    2.3645    1.1015    0.0000 C   0  0  0  0  0  0  0  0  0  0  0  0
   10.1099   -1.4694    0.0000 C   0  0  0  0  0  0  0  0  0  0  0  0
    1.6500    0.6890    0.0000 C   0  0  0  0  0  0  0  0  0  0  0  0
   10.9072   -1.2576    0.0000 C   0  0  0  0  0  0  0  0  0  0  0  0
    9.8947   -2.2659    0.0000 C   0  0  0  0  0  0  0  0  0  0  0  0
   11.4894   -1.8421    0.0000 C   0  0  0  0  0  0  0  0  0  0  0  0
   10.4768   -2.8505    0.0000 C   0  0  0  0  0  0  0  0  0  0  0  0
 12  1  1  1
  1 17  1  0
  2 21  1  0
  2 23  1  0
  3 14  2  0
  4 18  1  0
  4 22  1  0
  5 19  1  0
  6 19  2  0
  7 20  2  0
  8 22  2  0
  9 12  1  0
  9 14  1  0
  9 15  1  0
 13 10  1  1
 10 20  1  0
 11 27  2  0
 11 28  1  0
 12 13  1  0
 13 14  1  0
 15 16  2  0
 15 19  1  0
 16 17  1  0
 16 18  1  0
 20 21  1  0
 22 24  1  0
 23 25  2  0
 23 26  1  0
 25 27  1  0
 26 28  2  0
M  END
$$$$
