1366
     RDKit          2D

 21 22  0  0  1  0  0  0  0  0999 V2000
    4.5080    0.9529    0.0000 O   0  0  0  0  0  0  0  0  0  0  0  0
    3.7935   -2.7597    0.0000 O   0  0  0  0  0  0  0  0  0  0  0  0
    6.7059   -1.9546    0.0000 O   0  0  0  0  0  0  0  0  0  0  0  0
    3.0791    1.7779    0.0000 N   0  0  0  0  0  0  0  0  0  0  0  0
    5.2455   -1.9633    0.0000 N   0  0  0  0  0  0  0  0  0  0  0  0
    3.0791    0.9529    0.0000 C   0  0  0  0  0  0  0  0  0  0  0  0
    3.7935    0.5404    0.0000 C   0  0  0  0  0  0  0  0  0  0  0  0
    2.3645    0.5404    0.0000 C   0  0  0  0  0  0  0  0  0  0  0  0
    3.7935   -0.2846    0.0000 C   0  0  0  0  0  0  0  0  0  0  0  0
    2.3645    2.1904    0.0000 C   0  0  0  0  0  0  0  0  0  0  0  0
    4.5080   -0.6971    0.0000 C   0  0  0  0  0  0  0  0  0  0  0  0
    1.6500    0.9529    0.0000 C   0  0  0  0  0  0  0  0  0  0  0  0
    3.0791   -0.6971    0.0000 C   0  0  0  0  0  0  0  0  0  0  0  0
    4.5080   -1.5222    0.0000 C   0  0  0  0  0  0  0  0  0  0  0  0
    2.3645    3.0154    0.0000 C   0  0  0  0  0  0  0  0  0  0  0  0
    1.6500    1.7779    0.0000 C   0  0  0  0  0  0  0  0  0  0  0  0
    3.7935   -1.9347    0.0000 C   0  0  0  0  0  0  0  0  0  0  0  0
    5.2455   -0.2560    0.0000 C   0  0  0  0  0  0  0  0  0  0  0  0
    3.0791   -1.5222    0.0000 C   0  0  0  0  0  0  0  0  0  0  0  0
    5.9930   -0.6800    0.0000 C   0  0  0  0  0  0  0  0  0  0  0  0
    5.9930   -1.5393    0.0000 C   0  0  0  0  0  0  0  0  0  0  0  0
  7  1  1  6
  2 17  1  0
  3 21  2  0
  6  4  1  0
  4 10  1  0
  5 14  1  0
  5 21  1  0
  6  7  1  0
  6  8  1  6
  7  9  1  0
  8 12  1  0
  9 11  1  0
  9 13  2  0
 10 15  1  0
 10 16  1  0
 11 14  2  0
 11 18  1  0
 13 19  1  0
 14 17  1  0
 17 19  2  0
 18 20  2  0
 20 21  1  0
M  END
$$$$
