1416
     RDKit          2D

 28 30  0  0  1  0  0  0  0  0999 V2000
    4.5080   -0.5231    0.0000 S   0  0  0  0  0  0  0  0  0  0  0  0
   10.1463   -0.9319    0.0000 S   0  0  0  0  0  0  0  0  0  0  0  0
    6.6365    1.3025    0.0000 O   0  0  0  0  0  0  0  0  0  0  0  0
    2.3645    0.7145    0.0000 O   0  0  0  0  0  0  0  0  0  0  0  0
    3.7935    2.3645    0.0000 O   0  0  0  0  0  0  0  0  0  0  0  0
    5.2224    2.3645    0.0000 O   0  0  0  0  0  0  0  0  0  0  0  0
    7.6490    0.3098    0.0000 O   0  0  0  0  0  0  0  0  0  0  0  0
    7.0035   -2.0795    0.0000 O   0  0  0  0  0  0  0  0  0  0  0  0
    5.2224    0.7145    0.0000 N   0  0  0  0  0  0  0  0  0  0  0  0
    6.6365   -0.6985    0.0000 N   0  0  0  0  0  0  0  0  0  0  0  0
    7.8009   -1.8677    0.0000 N   0  0  0  0  0  0  0  0  0  0  0  0
    9.1106   -0.0897    0.0000 N   0  0  0  0  0  0  0  0  0  0  0  0
   10.4549    0.5055    0.0000 N   0  0  0  0  0  0  0  0  0  0  0  0
    5.2224   -0.1106    0.0000 C   0  0  0  0  0  0  0  0  0  0  0  0
    6.0543   -0.1139    0.0000 C   0  0  0  0  0  0  0  0  0  0  0  0
    6.0543    0.7179    0.0000 C   0  0  0  0  0  0  0  0  0  0  0  0
    4.5080    1.1270    0.0000 C   0  0  0  0  0  0  0  0  0  0  0  0
    3.7935    0.7145    0.0000 C   0  0  0  0  0  0  0  0  0  0  0  0
    3.7935   -0.1106    0.0000 C   0  0  0  0  0  0  0  0  0  0  0  0
    3.0791    1.1270    0.0000 C   0  0  0  0  0  0  0  0  0  0  0  0
    4.5080    1.9520    0.0000 C   0  0  0  0  0  0  0  0  0  0  0  0
    7.4338   -0.4866    0.0000 C   0  0  0  0  0  0  0  0  0  0  0  0
    8.0160   -1.0712    0.0000 C   0  0  0  0  0  0  0  0  0  0  0  0
    8.8133   -0.8593    0.0000 C   0  0  0  0  0  0  0  0  0  0  0  0
    1.6500    1.1270    0.0000 C   0  0  0  0  0  0  0  0  0  0  0  0
    9.4535   -1.3798    0.0000 C   0  0  0  0  0  0  0  0  0  0  0  0
    9.9344   -0.1346    0.0000 C   0  0  0  0  0  0  0  0  0  0  0  0
    6.7883   -2.8760    0.0000 C   0  0  0  0  0  0  0  0  0  0  0  0
 14  1  1  1
  1 19  1  0
  2 26  1  0
  2 27  1  0
  3 16  2  0
  4 20  1  0
  4 25  1  0
  5 21  1  0
  6 21  2  0
  7 22  2  0
  8 11  1  0
  8 28  1  0
  9 14  1  0
  9 16  1  0
  9 17  1  0
 15 10  1  1
 10 22  1  0
 11 23  2  0
 12 24  1  0
 12 27  2  0
 13 27  1  0
 14 15  1  0
 15 16  1  0
 17 18  2  0
 17 21  1  0
 18 19  1  0
 18 20  1  0
 22 23  1  0
 23 24  1  0
 24 26  2  0
M  END
$$$$
