1113
     RDKit          2D

 25 27  0  0  0  0  0  0  0  0999 V2000
    1.6500    0.6371    0.0000 O   0  0  0  0  0  0  0  0  0  0  0  0
    1.6500    2.2871    0.0000 O   0  0  0  0  0  0  0  0  0  0  0  0
    5.9217   -2.7079    0.0000 O   0  0  0  0  0  0  0  0  0  0  0  0
    7.3601   -1.8994    0.0000 O   0  0  0  0  0  0  0  0  0  0  0  0
    5.2785    1.0324    0.0000 N   0  0  0  0  0  0  0  0  0  0  0  0
    3.7935    1.0496    0.0000 C   0  0  0  0  0  0  0  0  0  0  0  0
    4.5215   -0.2165    0.0000 C   0  0  0  0  0  0  0  0  0  0  0  0
    4.5310    0.6084    0.0000 C   0  0  0  0  0  0  0  0  0  0  0  0
    3.7935    1.8746    0.0000 C   0  0  0  0  0  0  0  0  0  0  0  0
    5.2311   -0.6372    0.0000 C   0  0  0  0  0  0  0  0  0  0  0  0
    3.0790    0.6371    0.0000 C   0  0  0  0  0  0  0  0  0  0  0  0
    3.0790    2.2871    0.0000 C   0  0  0  0  0  0  0  0  0  0  0  0
    2.3645    1.0496    0.0000 C   0  0  0  0  0  0  0  0  0  0  0  0
    4.5310    2.3157    0.0000 C   0  0  0  0  0  0  0  0  0  0  0  0
    2.3645    1.8746    0.0000 C   0  0  0  0  0  0  0  0  0  0  0  0
    5.2216   -1.4622    0.0000 C   0  0  0  0  0  0  0  0  0  0  0  0
    5.9503   -0.2330    0.0000 C   0  0  0  0  0  0  0  0  0  0  0  0
    5.2785    1.8918    0.0000 C   0  0  0  0  0  0  0  0  0  0  0  0
    5.9313   -1.8829    0.0000 C   0  0  0  0  0  0  0  0  0  0  0  0
    6.6505   -1.4787    0.0000 C   0  0  0  0  0  0  0  0  0  0  0  0
    6.6600   -0.6537    0.0000 C   0  0  0  0  0  0  0  0  0  0  0  0
    1.6500   -0.1879    0.0000 C   0  0  0  0  0  0  0  0  0  0  0  0
    1.6500    3.1121    0.0000 C   0  0  0  0  0  0  0  0  0  0  0  0
    5.2026   -3.1121    0.0000 C   0  0  0  0  0  0  0  0  0  0  0  0
    8.0793   -1.4953    0.0000 C   0  0  0  0  0  0  0  0  0  0  0  0
  1 13  1  0
  1 22  1  0
  2 15  1  0
  2 23  1  0
  3 19  1  0
  3 24  1  0
  4 20  1  0
  4 25  1  0
  5  8  2  0
  5 18  1  0
  6  8  1  0
  6  9  2  0
  6 11  1  0
  7  8  1  0
  7 10  1  0
  9 12  1  0
  9 14  1  0
 10 16  2  0
 10 17  1  0
 11 13  2  0
 12 15  2  0
 13 15  1  0
 14 18  2  0
 16 19  1  0
 17 21  2  0
 19 20  2  0
 20 21  1  0
M  END
$$$$
