1238
     RDKit          2D

 30 33  0  0  0  0  0  0  0  0999 V2000
   12.4232   -0.7979    0.0000 Cl  0  0  0  0  0  0  0  0  0  0  0  0
   13.8554    0.0216    0.0000 Cl  0  0  0  0  0  0  0  0  0  0  0  0
    5.9914   -1.1855    0.0000 O   0  0  0  0  0  0  0  0  0  0  0  0
    1.6500   -1.1657    0.0000 O   0  0  0  0  0  0  0  0  0  0  0  0
    9.5653   -0.7868    0.0000 N   0  0  0  0  0  0  0  0  0  0  0  0
   10.9974    0.0327    0.0000 N   0  0  0  0  0  0  0  0  0  0  0  0
    3.0790   -1.1657    0.0000 N   0  0  0  0  0  0  0  0  0  0  0  0
   10.2782   -1.2021    0.0000 C   0  0  0  0  0  0  0  0  0  0  0  0
    9.5685    0.0382    0.0000 C   0  0  0  0  0  0  0  0  0  0  0  0
   10.9942   -0.7923    0.0000 C   0  0  0  0  0  0  0  0  0  0  0  0
   10.2846    0.4479    0.0000 C   0  0  0  0  0  0  0  0  0  0  0  0
    8.8493   -1.1966    0.0000 C   0  0  0  0  0  0  0  0  0  0  0  0
    8.1364   -0.7814    0.0000 C   0  0  0  0  0  0  0  0  0  0  0  0
   11.7135    0.4424    0.0000 C   0  0  0  0  0  0  0  0  0  0  0  0
    7.4203   -1.1911    0.0000 C   0  0  0  0  0  0  0  0  0  0  0  0
    6.7074   -0.7758    0.0000 C   0  0  0  0  0  0  0  0  0  0  0  0
   12.4264    0.0271    0.0000 C   0  0  0  0  0  0  0  0  0  0  0  0
   11.7167    1.2674    0.0000 C   0  0  0  0  0  0  0  0  0  0  0  0
    3.7935    0.0719    0.0000 C   0  0  0  0  0  0  0  0  0  0  0  0
    3.0790    0.4844    0.0000 C   0  0  0  0  0  0  0  0  0  0  0  0
    3.7935   -0.7532    0.0000 C   0  0  0  0  0  0  0  0  0  0  0  0
    5.2785   -0.7703    0.0000 C   0  0  0  0  0  0  0  0  0  0  0  0
   13.1425    0.4369    0.0000 C   0  0  0  0  0  0  0  0  0  0  0  0
   12.4327    1.6772    0.0000 C   0  0  0  0  0  0  0  0  0  0  0  0
    2.3645    0.0719    0.0000 C   0  0  0  0  0  0  0  0  0  0  0  0
    4.5309   -1.1943    0.0000 C   0  0  0  0  0  0  0  0  0  0  0  0
   13.1456    1.2619    0.0000 C   0  0  0  0  0  0  0  0  0  0  0  0
    4.5309    0.5130    0.0000 C   0  0  0  0  0  0  0  0  0  0  0  0
    5.2785    0.0890    0.0000 C   0  0  0  0  0  0  0  0  0  0  0  0
    2.3645   -0.7532    0.0000 C   0  0  0  0  0  0  0  0  0  0  0  0
  1 17  1  0
  2 23  1  0
  3 16  1  0
  3 22  1  0
  4 30  2  0
  5  8  1  0
  5  9  1  0
  5 12  1  0
  6 10  1  0
  6 11  1  0
  6 14  1  0
  7 21  1  0
  7 30  1  0
  8 10  1  0
  9 11  1  0
 12 13  1  0
 13 15  1  0
 14 17  2  0
 14 18  1  0
 15 16  1  0
 17 23  1  0
 18 24  2  0
 19 20  1  0
 19 21  2  0
 19 28  1  0
 20 25  1  0
 21 26  1  0
 22 26  2  0
 22 29  1  0
 23 27  2  0
 24 27  1  0
 25 30  1  0
 28 29  2  0
M  END
$$$$
