1275
     RDKit          2D

 12 13  0  0  0  0  0  0  0  0999 V2000
    2.6954   -0.7582    0.0000 N   0  0  0  0  0  0  0  0  0  0  0  0
    2.0094    0.4298    0.0000 N   0  0  0  0  0  0  0  0  0  0  0  0
    2.0094    1.2219    0.0000 N   0  0  0  0  0  0  0  0  0  0  0  0
    2.0094   -1.1543    0.0000 N   0  0  0  0  0  0  0  0  0  0  0  0
    3.3813    0.4298    0.0000 C   0  0  0  0  0  0  0  0  0  0  0  0
    3.3813    1.2219    0.0000 C   0  0  0  0  0  0  0  0  0  0  0  0
    2.6954    0.0338    0.0000 C   0  0  0  0  0  0  0  0  0  0  0  0
    4.0893    0.0063    0.0000 C   0  0  0  0  0  0  0  0  0  0  0  0
    4.0893    1.6454    0.0000 C   0  0  0  0  0  0  0  0  0  0  0  0
    4.8070    0.4133    0.0000 C   0  0  0  0  0  0  0  0  0  0  0  0
    2.6954    1.6179    0.0000 C   0  0  0  0  0  0  0  0  0  0  0  0
    4.8070    1.2384    0.0000 C   0  0  0  0  0  0  0  0  0  0  0  0
  1  4  1  0
  1  7  1  0
  2  3  2  0
  2  7  1  0
  3 11  1  0
  5  6  1  0
  5  7  2  0
  5  8  1  0
  6  9  1  0
  6 11  2  0
  8 10  2  0
  9 12  2  0
 10 12  1  0
M  END
$$$$
