1329
     RDKit          2D

 44 48  0  0  1  0  0  0  0  0999 V2000
    5.8137    1.1503    0.0000 S   0  0  0  0  0  0  0  0  0  0  0  0
    3.6702    2.3878    0.0000 S   0  0  0  0  0  0  0  0  0  0  0  0
    7.9421    2.9758    0.0000 O   0  0  0  0  0  0  0  0  0  0  0  0
    8.9546    1.9831    0.0000 O   0  0  0  0  0  0  0  0  0  0  0  0
    5.0992    4.0378    0.0000 O   0  0  0  0  0  0  0  0  0  0  0  0
    6.5281    4.0378    0.0000 O   0  0  0  0  0  0  0  0  0  0  0  0
   10.4859   -0.5670    0.0000 O   0  0  0  0  0  0  0  0  0  0  0  0
    8.0940   -1.2027    0.0000 O   0  0  0  0  0  0  0  0  0  0  0  0
    7.6636   -2.7956    0.0000 O   0  0  0  0  0  0  0  0  0  0  0  0
   12.5110    1.4497    0.0000 O   0  0  0  0  0  0  0  0  0  0  0  0
    6.5281    2.3878    0.0000 N   0  0  0  0  0  0  0  0  0  0  0  0
    7.9421    0.9747    0.0000 N   0  0  0  0  0  0  0  0  0  0  0  0
    9.1064   -0.1944    0.0000 N   0  0  0  0  0  0  0  0  0  0  0  0
    9.4735   -1.5753    0.0000 N   0  0  0  0  0  0  0  0  0  0  0  0
    9.0431   -3.1683    0.0000 N   0  0  0  0  0  0  0  0  0  0  0  0
    2.2020    2.4647    0.0000 N   0  0  0  0  0  0  0  0  0  0  0  0
    2.8695    3.6208    0.0000 N   0  0  0  0  0  0  0  0  0  0  0  0
    1.6500    3.0779    0.0000 N   0  0  0  0  0  0  0  0  0  0  0  0
    2.0625    3.7923    0.0000 N   0  0  0  0  0  0  0  0  0  0  0  0
    6.5281    1.5628    0.0000 C   0  0  0  0  0  0  0  0  0  0  0  0
    7.3600    1.5593    0.0000 C   0  0  0  0  0  0  0  0  0  0  0  0
    7.3600    2.3912    0.0000 C   0  0  0  0  0  0  0  0  0  0  0  0
    5.8137    2.8003    0.0000 C   0  0  0  0  0  0  0  0  0  0  0  0
    5.0992    2.3878    0.0000 C   0  0  0  0  0  0  0  0  0  0  0  0
    5.0992    1.5628    0.0000 C   0  0  0  0  0  0  0  0  0  0  0  0
    8.7395    1.1867    0.0000 C   0  0  0  0  0  0  0  0  0  0  0  0
    4.3847    2.8003    0.0000 C   0  0  0  0  0  0  0  0  0  0  0  0
    9.3216    0.6021    0.0000 C   0  0  0  0  0  0  0  0  0  0  0  0
    5.8137    3.6253    0.0000 C   0  0  0  0  0  0  0  0  0  0  0  0
   10.1189    0.8140    0.0000 C   0  0  0  0  0  0  0  0  0  0  0  0
    9.6886   -0.7789    0.0000 C   0  0  0  0  0  0  0  0  0  0  0  0
   10.0556   -2.1599    0.0000 C   0  0  0  0  0  0  0  0  0  0  0  0
    9.8404   -2.9564    0.0000 C   0  0  0  0  0  0  0  0  0  0  0  0
   10.3341    1.6104    0.0000 C   0  0  0  0  0  0  0  0  0  0  0  0
   10.7012    0.2294    0.0000 C   0  0  0  0  0  0  0  0  0  0  0  0
    8.6761   -1.7873    0.0000 C   0  0  0  0  0  0  0  0  0  0  0  0
    8.4609   -2.5837    0.0000 C   0  0  0  0  0  0  0  0  0  0  0  0
    2.9557    2.8003    0.0000 C   0  0  0  0  0  0  0  0  0  0  0  0
    8.8280   -3.9647    0.0000 C   0  0  0  0  0  0  0  0  0  0  0  0
   11.1315    1.8224    0.0000 C   0  0  0  0  0  0  0  0  0  0  0  0
   11.4984    0.4413    0.0000 C   0  0  0  0  0  0  0  0  0  0  0  0
   11.7136    1.2378    0.0000 C   0  0  0  0  0  0  0  0  0  0  0  0
    9.4101   -4.5493    0.0000 C   0  0  0  0  0  0  0  0  0  0  0  0
    2.0305    1.6578    0.0000 C   0  0  0  0  0  0  0  0  0  0  0  0
 20  1  1  1
  1 25  1  0
  2 27  1  0
  2 38  1  0
  3 22  2  0
  4 26  2  0
  5 29  1  0
  6 29  2  0
  7 31  2  0
  8 36  2  0
  9 37  2  0
 10 42  1  0
 11 20  1  0
 11 22  1  0
 11 23  1  0
 21 12  1  1
 12 26  1  0
 13 28  1  0
 13 31  1  0
 14 31  1  0
 14 32  1  0
 14 36  1  0
 15 33  1  0
 15 37  1  0
 15 39  1  0
 16 18  1  0
 16 38  1  0
 16 44  1  0
 17 19  1  0
 17 38  2  0
 18 19  2  0
 20 21  1  0
 21 22  1  0
 23 24  2  0
 23 29  1  0
 24 25  1  0
 24 27  1  0
 26 28  1  0
 28 30  1  0
 30 34  2  0
 30 35  1  0
 32 33  1  0
 34 40  1  0
 35 41  2  0
 36 37  1  0
 39 43  1  0
 40 42  2  0
 41 42  1  0
M  END
$$$$
