
     RDKit          2D

  9  8  0  0  0  0  0  0  0  0999 V2000
   -0.1748   -4.4270    0.0000 O   0  0  0  0  0  0  0  0  0  0  0  0
   -0.1748   -3.6020    0.0000 Si  0  0  0  0  0  4  0  0  0  0  0  0
   -0.9998   -3.6020    0.0000 O   0  0  0  0  0  0  0  0  0  0  0  0
    0.6502   -3.6020    0.0000 O   0  0  0  0  0  0  0  0  0  0  0  0
   -0.1748   -2.7770    0.0000 O   0  0  0  0  0  0  0  0  0  0  0  0
    0.5397   -2.3645    0.0000 Si  0  0  0  0  0  4  0  0  0  0  0  0
    1.2542   -1.9520    0.0000 O   0  0  0  0  0  0  0  0  0  0  0  0
    0.1272   -1.6500    0.0000 O   0  0  0  0  0  0  0  0  0  0  0  0
    0.9522   -3.0789    0.0000 O   0  0  0  0  0  0  0  0  0  0  0  0
  1  2  1  0
  2  3  1  0
  2  4  1  0
  2  5  1  0
  5  6  1  0
  6  7  1  0
  6  8  1  0
  6  9  1  0
M  CHG  6   1  -1   3  -1   4  -1   7  -1   8  -1   9  -1
M  END
$$$$
