
     RDKit          2D

 19 19  0  0  1  0  0  0  0  0999 V2000
   12.3674  -12.5312    0.0000 C   0  0  0  0  0  0  0  0  0  0  0  0
   11.6542  -12.9393    0.0000 N   0  0  0  0  0  0  0  0  0  0  0  0
   13.0805  -12.9393    0.0000 C   0  0  0  0  0  0  0  0  0  0  0  0
   12.3674  -11.7050    0.0000 C   0  0  0  0  0  0  0  0  0  0  0  0
   11.6542  -13.7656    0.0000 C   0  0  0  0  0  0  0  0  0  0  0  0
   10.9376  -12.5312    0.0000 C   0  0  0  0  0  0  0  0  0  0  0  0
   13.7972  -12.5312    0.0000 C   0  0  0  0  0  0  0  0  0  0  0  0
   13.0805  -11.2901    0.0000 C   0  0  0  0  0  0  0  0  0  0  0  0
   13.7937  -11.7118    0.0000 C   0  0  0  0  0  0  0  0  0  0  0  0
   14.5069  -11.2970    0.0000 C   0  0  0  0  0  0  0  0  0  0  0  0
   15.2200  -11.7118    0.0000 C   0  0  0  0  0  0  0  0  0  0  0  0
   15.9366  -11.2970    0.0000 C   0  0  0  0  0  0  0  0  0  0  0  0
   15.2200  -12.5347    0.0000 N   0  0  0  0  0  0  0  0  0  0  0  0
   16.6463  -11.7118    0.0000 O   0  0  0  0  0  0  0  0  0  0  0  0
   15.9366  -10.4706    0.0000 O   0  0  0  0  0  0  0  0  0  0  0  0
   10.9357  -11.7216    0.0000 C   0  0  0  0  0  0  0  0  0  0  0  0
   10.2137  -11.3068    0.0000 Cl  0  0  0  0  0  0  0  0  0  0  0  0
   12.3791  -14.1839    0.0000 C   0  0  0  0  0  0  0  0  0  0  0  0
   12.3793  -15.0110    0.0000 Cl  0  0  0  0  0  0  0  0  0  0  0  0
  1  2  1  0
  1  3  2  0
  1  4  1  0
  2  5  1  0
  2  6  1  0
  3  7  1  0
  4  8  2  0
  7  9  2  0
  9 10  1  0
 10 11  1  0
 11 12  1  0
 11 13  1  1
 12 14  1  0
 12 15  2  0
  8  9  1  0
  6 16  1  0
 16 17  1  0
  5 18  1  0
 18 19  1  0
M  END
$$$$
