1384
     RDKit          2D

 28 31  0  0  1  0  0  0  0  0999 V2000
    4.6603   -2.9528    0.0000 F   0  0  0  0  0  0  0  0  0  0  0  0
    6.6263    1.4409    0.0000 O   0  0  0  0  0  0  0  0  0  0  0  0
    3.9559    0.8169    0.0000 O   0  0  0  0  0  0  0  0  0  0  0  0
    8.3013    0.8027    0.0000 O   0  0  0  0  0  0  0  0  0  0  0  0
    8.1317    2.4440    0.0000 O   0  0  0  0  0  0  0  0  0  0  0  0
    1.6500   -2.1138    0.0000 O   0  0  0  0  0  0  0  0  0  0  0  0
    6.0993    0.4044    0.0000 C   0  0  0  0  0  0  0  0  0  0  0  0
    6.0993   -0.4206    0.0000 C   0  0  0  0  0  0  0  0  0  0  0  0
    5.3849   -0.8331    0.0000 C   0  0  0  0  0  0  0  0  0  0  0  0
    4.6703   -0.4206    0.0000 C   0  0  0  0  0  0  0  0  0  0  0  0
    6.8799    0.6558    0.0000 C   0  0  0  0  0  0  0  0  0  0  0  0
    6.8799   -0.6720    0.0000 C   0  0  0  0  0  0  0  0  0  0  0  0
    5.3849    0.8169    0.0000 C   0  0  0  0  0  0  0  0  0  0  0  0
    7.3614   -0.0081    0.0000 C   0  0  0  0  0  0  0  0  0  0  0  0
    4.6703    0.4044    0.0000 C   0  0  0  0  0  0  0  0  0  0  0  0
    3.9196   -0.8388    0.0000 C   0  0  0  0  0  0  0  0  0  0  0  0
    5.3981   -1.6923    0.0000 C   0  0  0  0  0  0  0  0  0  0  0  0
    6.0993    1.2294    0.0000 C   0  0  0  0  0  0  0  0  0  0  0  0
    4.6572   -2.1278    0.0000 C   0  0  0  0  0  0  0  0  0  0  0  0
    3.9130   -1.6981    0.0000 C   0  0  0  0  0  0  0  0  0  0  0  0
    7.5482    1.1396    0.0000 C   0  0  0  0  0  0  0  0  0  0  0  0
    8.1864   -0.0081    0.0000 C   0  0  0  0  0  0  0  0  0  0  0  0
    3.9259   -0.0138    0.0000 C   0  0  0  0  0  0  0  0  0  0  0  0
    3.1550   -0.3734    0.0000 C   0  0  0  0  0  0  0  0  0  0  0  0
    3.1413   -2.1516    0.0000 C   0  0  0  0  0  0  0  0  0  0  0  0
    7.4634    1.9602    0.0000 C   0  0  0  0  0  0  0  0  0  0  0  0
    2.3729   -0.8089    0.0000 C   0  0  0  0  0  0  0  0  0  0  0  0
    2.3660   -1.7040    0.0000 C   0  0  0  0  0  0  0  0  0  0  0  0
 19  1  1  6
 11  2  1  6
 15  3  1  1
  4 21  2  0
  5 26  1  0
  6 28  2  0
  7  8  1  0
  7 11  1  0
  7 13  1  0
  7 18  1  1
  8  9  1  0
  8 12  1  1
  9 10  1  0
  9 17  1  6
 10 15  1  1
 10 16  1  0
 11 14  1  0
 11 21  1  0
 12 14  1  0
 13 15  1  0
 14 22  1  6
 16 20  1  0
 16 23  1  1
 16 24  1  0
 17 19  1  0
 19 20  1  0
 20 25  2  0
 21 26  1  0
 24 27  2  0
 25 28  1  0
 27 28  1  0
M  END
$$$$
