1267
     RDKit          2D

 31 35  0  0  1  0  0  0  0  0999 V2000
    1.6500   -0.6622    0.0000 F   0  0  0  0  0  0  0  0  0  0  0  0
    3.9340   -2.4952    0.0000 O   0  0  0  0  0  0  0  0  0  0  0  0
   11.2647    2.2343    0.0000 O   0  0  0  0  0  0  0  0  0  0  0  0
    9.8223   -1.0943    0.0000 O   0  0  0  0  0  0  0  0  0  0  0  0
    6.9643   -0.2693    0.0000 N   0  0  0  0  0  0  0  0  0  0  0  0
   10.5367    0.1432    0.0000 N   0  0  0  0  0  0  0  0  0  0  0  0
    4.7359   -2.3226    0.0000 N   0  0  0  0  0  0  0  0  0  0  0  0
    9.8223    1.3808    0.0000 N   0  0  0  0  0  0  0  0  0  0  0  0
    5.5353   -1.0943    0.0000 C   0  0  0  0  0  0  0  0  0  0  0  0
    6.2498   -1.5068    0.0000 C   0  0  0  0  0  0  0  0  0  0  0  0
    5.5353   -0.2693    0.0000 C   0  0  0  0  0  0  0  0  0  0  0  0
    6.9643   -1.0943    0.0000 C   0  0  0  0  0  0  0  0  0  0  0  0
    6.2498    0.1432    0.0000 C   0  0  0  0  0  0  0  0  0  0  0  0
    7.6788    0.1432    0.0000 C   0  0  0  0  0  0  0  0  0  0  0  0
    4.8208   -1.5068    0.0000 C   0  0  0  0  0  0  0  0  0  0  0  0
    8.3932   -0.2693    0.0000 C   0  0  0  0  0  0  0  0  0  0  0  0
    9.1078    0.1432    0.0000 C   0  0  0  0  0  0  0  0  0  0  0  0
   11.2742   -0.2979    0.0000 C   0  0  0  0  0  0  0  0  0  0  0  0
   11.2742    1.4093    0.0000 C   0  0  0  0  0  0  0  0  0  0  0  0
   12.0218    0.1261    0.0000 C   0  0  0  0  0  0  0  0  0  0  0  0
   12.0218    0.9854    0.0000 C   0  0  0  0  0  0  0  0  0  0  0  0
   10.5367    0.9682    0.0000 C   0  0  0  0  0  0  0  0  0  0  0  0
    4.0719   -1.1726    0.0000 C   0  0  0  0  0  0  0  0  0  0  0  0
    9.8223   -0.2693    0.0000 C   0  0  0  0  0  0  0  0  0  0  0  0
    9.1078    0.9682    0.0000 C   0  0  0  0  0  0  0  0  0  0  0  0
    3.5209   -1.7867    0.0000 C   0  0  0  0  0  0  0  0  0  0  0  0
    3.8156   -0.3884    0.0000 C   0  0  0  0  0  0  0  0  0  0  0  0
    8.3932    1.3808    0.0000 C   0  0  0  0  0  0  0  0  0  0  0  0
    2.7136   -1.6165    0.0000 C   0  0  0  0  0  0  0  0  0  0  0  0
    3.0083   -0.2183    0.0000 C   0  0  0  0  0  0  0  0  0  0  0  0
    2.4573   -0.8324    0.0000 C   0  0  0  0  0  0  0  0  0  0  0  0
  1 31  1  0
  2  7  1  0
  2 26  1  0
  3 19  1  0
  4 24  2  0
  5 12  1  0
  5 13  1  0
  5 14  1  0
  6 18  1  0
  6 22  1  0
  6 24  1  0
  7 15  2  0
  8 22  2  0
  8 25  1  0
  9 10  1  0
  9 11  1  0
  9 15  1  0
 10 12  1  0
 11 13  1  0
 14 16  1  0
 15 23  1  0
 16 17  1  0
 17 24  1  0
 17 25  2  0
 18 20  1  0
 19 21  1  0
 19 22  1  0
 20 21  1  0
 23 26  2  0
 23 27  1  0
 25 28  1  0
 26 29  1  0
 27 30  2  0
 29 31  2  0
 30 31  1  0
M  END
$$$$
