1125
     RDKit          2D

 19 21  0  0  0  0  0  0  0  0999 V2000
    4.1159    1.4482    0.0000 O   0  0  0  0  0  0  0  0  0  0  0  0
    4.1159   -1.4482    0.0000 O   0  0  0  0  0  0  0  0  0  0  0  0
    7.6412    0.0000    0.0000 O   0  0  0  0  0  0  0  0  0  0  0  0
    4.3412    0.0000    0.0000 C   0  0  0  0  0  0  0  0  0  0  0  0
    3.8597    0.6639    0.0000 C   0  0  0  0  0  0  0  0  0  0  0  0
    3.8597   -0.6639    0.0000 C   0  0  0  0  0  0  0  0  0  0  0  0
    3.0791    0.4125    0.0000 C   0  0  0  0  0  0  0  0  0  0  0  0
    3.0791   -0.4125    0.0000 C   0  0  0  0  0  0  0  0  0  0  0  0
    5.1662    0.0000    0.0000 C   0  0  0  0  0  0  0  0  0  0  0  0
    2.3645    0.8250    0.0000 C   0  0  0  0  0  0  0  0  0  0  0  0
    2.3645   -0.8250    0.0000 C   0  0  0  0  0  0  0  0  0  0  0  0
    5.5787    0.7145    0.0000 C   0  0  0  0  0  0  0  0  0  0  0  0
    5.5787   -0.7145    0.0000 C   0  0  0  0  0  0  0  0  0  0  0  0
    1.6500    0.4125    0.0000 C   0  0  0  0  0  0  0  0  0  0  0  0
    1.6500   -0.4125    0.0000 C   0  0  0  0  0  0  0  0  0  0  0  0
    6.4037    0.7145    0.0000 C   0  0  0  0  0  0  0  0  0  0  0  0
    6.4037   -0.7145    0.0000 C   0  0  0  0  0  0  0  0  0  0  0  0
    6.8162    0.0000    0.0000 C   0  0  0  0  0  0  0  0  0  0  0  0
    8.0537   -0.7145    0.0000 C   0  0  0  0  0  0  0  0  0  0  0  0
  1  5  2  0
  2  6  2  0
  3 18  1  0
  3 19  1  0
  4  5  1  0
  4  6  1  0
  4  9  1  0
  5  7  1  0
  6  8  1  0
  7  8  2  0
  7 10  1  0
  8 11  1  0
  9 12  2  0
  9 13  1  0
 10 14  2  0
 11 15  2  0
 12 16  1  0
 13 17  2  0
 14 15  1  0
 16 18  2  0
 17 18  1  0
M  END
$$$$
