1195
     RDKit          2D

 28 29  0  0  1  0  0  0  0  0999 V2000
    1.9520   -0.7697    0.0000 F   0  0  0  0  0  0  0  0  0  0  0  0
    1.6500    0.3572    0.0000 F   0  0  0  0  0  0  0  0  0  0  0  0
    2.7770    0.6592    0.0000 F   0  0  0  0  0  0  0  0  0  0  0  0
    8.0804   -3.3553    0.0000 F   0  0  0  0  0  0  0  0  0  0  0  0
    6.9534   -3.6573    0.0000 F   0  0  0  0  0  0  0  0  0  0  0  0
    7.7784   -2.2284    0.0000 F   0  0  0  0  0  0  0  0  0  0  0  0
    4.5080    1.1823    0.0000 O   0  0  0  0  0  0  0  0  0  0  0  0
    3.7935   -0.0553    0.0000 O   0  0  0  0  0  0  0  0  0  0  0  0
    6.6515   -1.7053    0.0000 O   0  0  0  0  0  0  0  0  0  0  0  0
    6.6515    3.2448    0.0000 N   0  0  0  0  0  0  0  0  0  0  0  0
    5.9370    1.1823    0.0000 N   0  0  0  0  0  0  0  0  0  0  0  0
    6.6515    2.4198    0.0000 C   0  0  0  0  0  0  0  0  0  0  0  0
    7.3659    2.0073    0.0000 C   0  0  0  0  0  0  0  0  0  0  0  0
    8.0804    2.4198    0.0000 C   0  0  0  0  0  0  0  0  0  0  0  0
    8.0804    3.2448    0.0000 C   0  0  0  0  0  0  0  0  0  0  0  0
    7.3659    3.6573    0.0000 C   0  0  0  0  0  0  0  0  0  0  0  0
    5.9370    2.0073    0.0000 C   0  0  0  0  0  0  0  0  0  0  0  0
    5.2224    0.7697    0.0000 C   0  0  0  0  0  0  0  0  0  0  0  0
    5.2224   -0.0553    0.0000 C   0  0  0  0  0  0  0  0  0  0  0  0
    4.5080   -0.4678    0.0000 C   0  0  0  0  0  0  0  0  0  0  0  0
    5.9370   -0.4678    0.0000 C   0  0  0  0  0  0  0  0  0  0  0  0
    5.9370   -1.2928    0.0000 C   0  0  0  0  0  0  0  0  0  0  0  0
    4.5080   -1.2928    0.0000 C   0  0  0  0  0  0  0  0  0  0  0  0
    5.2224   -1.7053    0.0000 C   0  0  0  0  0  0  0  0  0  0  0  0
    3.0791   -0.4678    0.0000 C   0  0  0  0  0  0  0  0  0  0  0  0
    6.6515   -2.5303    0.0000 C   0  0  0  0  0  0  0  0  0  0  0  0
    2.3645   -0.0553    0.0000 C   0  0  0  0  0  0  0  0  0  0  0  0
    7.3659   -2.9428    0.0000 C   0  0  0  0  0  0  0  0  0  0  0  0
  1 27  1  0
  2 27  1  0
  3 27  1  0
  4 28  1  0
  5 28  1  0
  6 28  1  0
  7 18  2  0
  8 20  1  0
  8 25  1  0
  9 22  1  0
  9 26  1  0
 10 12  1  0
 10 16  1  0
 11 17  1  0
 11 18  1  0
 12 13  1  0
 12 17  1  0
 13 14  1  0
 14 15  1  0
 15 16  1  0
 18 19  1  0
 19 20  2  0
 19 21  1  0
 20 23  1  0
 21 22  2  0
 22 24  1  0
 23 24  2  0
 25 27  1  0
 26 28  1  0
M  END
$$$$
