1414
     RDKit          2D

 23 24  0  0  1  0  0  0  0  0999 V2000
    5.2224   -1.3649    0.0000 S   0  0  0  0  0  0  0  0  0  0  0  0
    7.3510    0.4606    0.0000 O   0  0  0  0  0  0  0  0  0  0  0  0
    3.0791   -0.1274    0.0000 O   0  0  0  0  0  0  0  0  0  0  0  0
    4.5080    1.5227    0.0000 O   0  0  0  0  0  0  0  0  0  0  0  0
    5.9370    1.5227    0.0000 O   0  0  0  0  0  0  0  0  0  0  0  0
    8.3635   -0.5321    0.0000 O   0  0  0  0  0  0  0  0  0  0  0  0
    2.3645    1.1101    0.0000 O   0  0  0  0  0  0  0  0  0  0  0  0
    5.9370   -0.1274    0.0000 N   0  0  0  0  0  0  0  0  0  0  0  0
    7.3510   -1.5404    0.0000 N   0  0  0  0  0  0  0  0  0  0  0  0
   10.3252   -1.4892    0.0000 N   0  0  0  0  0  0  0  0  0  0  0  0
    5.9370   -0.9524    0.0000 C   0  0  0  0  0  0  0  0  0  0  0  0
    6.7688   -0.9558    0.0000 C   0  0  0  0  0  0  0  0  0  0  0  0
    6.7688   -0.1239    0.0000 C   0  0  0  0  0  0  0  0  0  0  0  0
    5.2224    0.2851    0.0000 C   0  0  0  0  0  0  0  0  0  0  0  0
    4.5080   -0.1274    0.0000 C   0  0  0  0  0  0  0  0  0  0  0  0
    4.5080   -0.9524    0.0000 C   0  0  0  0  0  0  0  0  0  0  0  0
    3.7935    0.2851    0.0000 C   0  0  0  0  0  0  0  0  0  0  0  0
    5.2224    1.1101    0.0000 C   0  0  0  0  0  0  0  0  0  0  0  0
    8.1483   -1.3284    0.0000 C   0  0  0  0  0  0  0  0  0  0  0  0
    8.7305   -1.9131    0.0000 C   0  0  0  0  0  0  0  0  0  0  0  0
    2.3645    0.2851    0.0000 C   0  0  0  0  0  0  0  0  0  0  0  0
    9.5278   -1.7012    0.0000 C   0  0  0  0  0  0  0  0  0  0  0  0
    1.6500   -0.1274    0.0000 C   0  0  0  0  0  0  0  0  0  0  0  0
 11  1  1  1
  1 16  1  0
  2 13  2  0
  3 17  1  0
  3 21  1  0
  4 18  1  0
  5 18  2  0
  6 19  2  0
  7 21  2  0
  8 11  1  0
  8 13  1  0
  8 14  1  0
 12  9  1  1
  9 19  1  0
 10 22  3  0
 11 12  1  0
 12 13  1  0
 14 15  2  0
 14 18  1  0
 15 16  1  0
 15 17  1  0
 19 20  1  0
 20 22  1  0
 21 23  1  0
M  END
$$$$
