1430
     RDKit          2D

 35 38  0  0  0  0  0  0  0  0999 V2000
    4.5080   -4.3313    0.0000 F   0  0  0  0  0  0  0  0  0  0  0  0
    1.6500    0.6188    0.0000 F   0  0  0  0  0  0  0  0  0  0  0  0
    5.2224   -0.6188    0.0000 N   0  0  0  0  0  0  0  0  0  0  0  0
    6.6515    0.2063    0.0000 N   0  0  0  0  0  0  0  0  0  0  0  0
    7.3659    1.4438    0.0000 N   0  0  0  0  0  0  0  0  0  0  0  0
    8.0804    0.2063    0.0000 N   0  0  0  0  0  0  0  0  0  0  0  0
    8.7949    1.4438    0.0000 N   0  0  0  0  0  0  0  0  0  0  0  0
    8.0804    2.6813    0.0000 N   0  0  0  0  0  0  0  0  0  0  0  0
    9.5094    0.2063    0.0000 N   0  0  0  0  0  0  0  0  0  0  0  0
    5.9370   -1.0313    0.0000 C   0  0  0  0  0  0  0  0  0  0  0  0
    5.2224    0.2063    0.0000 C   0  0  0  0  0  0  0  0  0  0  0  0
    4.5080   -1.0313    0.0000 C   0  0  0  0  0  0  0  0  0  0  0  0
    6.6515   -0.6188    0.0000 C   0  0  0  0  0  0  0  0  0  0  0  0
    5.9370    0.6188    0.0000 C   0  0  0  0  0  0  0  0  0  0  0  0
    4.5080   -1.8563    0.0000 C   0  0  0  0  0  0  0  0  0  0  0  0
    3.7935   -0.6188    0.0000 C   0  0  0  0  0  0  0  0  0  0  0  0
    7.3659    0.6188    0.0000 C   0  0  0  0  0  0  0  0  0  0  0  0
    5.2224   -2.2688    0.0000 C   0  0  0  0  0  0  0  0  0  0  0  0
    3.0791   -1.0313    0.0000 C   0  0  0  0  0  0  0  0  0  0  0  0
    3.7935   -2.2688    0.0000 C   0  0  0  0  0  0  0  0  0  0  0  0
    3.7935    0.2063    0.0000 C   0  0  0  0  0  0  0  0  0  0  0  0
    5.2224   -3.0938    0.0000 C   0  0  0  0  0  0  0  0  0  0  0  0
    2.3645   -0.6188    0.0000 C   0  0  0  0  0  0  0  0  0  0  0  0
    3.7935   -3.0938    0.0000 C   0  0  0  0  0  0  0  0  0  0  0  0
    3.0791    0.6188    0.0000 C   0  0  0  0  0  0  0  0  0  0  0  0
    4.5080   -3.5063    0.0000 C   0  0  0  0  0  0  0  0  0  0  0  0
    2.3645    0.2063    0.0000 C   0  0  0  0  0  0  0  0  0  0  0  0
    8.0804    1.8563    0.0000 C   0  0  0  0  0  0  0  0  0  0  0  0
    8.7949    0.6188    0.0000 C   0  0  0  0  0  0  0  0  0  0  0  0
    8.7949    3.0938    0.0000 C   0  0  0  0  0  0  0  0  0  0  0  0
   10.2239    0.6188    0.0000 C   0  0  0  0  0  0  0  0  0  0  0  0
    8.7949    3.9188    0.0000 C   0  0  0  0  0  0  0  0  0  0  0  0
   10.9383    0.2063    0.0000 C   0  0  0  0  0  0  0  0  0  0  0  0
    9.5094    4.3313    0.0000 C   0  0  0  0  0  0  0  0  0  0  0  0
   11.6529    0.6188    0.0000 C   0  0  0  0  0  0  0  0  0  0  0  0
  1 26  1  0
  2 27  1  0
  3 10  1  0
  3 11  1  0
  3 12  1  0
  4 13  1  0
  4 14  1  0
  4 17  1  0
  5 17  2  0
  5 28  1  0
  6 17  1  0
  6 29  2  0
  7 28  2  0
  7 29  1  0
  8 28  1  0
  8 30  1  0
  9 29  1  0
  9 31  1  0
 10 13  1  0
 11 14  1  0
 12 15  1  0
 12 16  1  0
 15 18  2  0
 15 20  1  0
 16 19  2  0
 16 21  1  0
 18 22  1  0
 19 23  1  0
 20 24  2  0
 21 25  2  0
 22 26  2  0
 23 27  2  0
 24 26  1  0
 25 27  1  0
 30 32  1  0
 31 33  1  0
 32 34  2  3
 33 35  2  3
M  END
$$$$
