1083
     RDKit          2D

 35 35  0  0  1  0  0  0  0  0999 V2000
    6.6160   -0.3494    0.0000 O   0  0  0  0  0  0  0  0  0  0  0  0
    8.5796   -2.1277    0.0000 O   0  0  0  0  0  0  0  0  0  0  0  0
    5.2076    0.2340    0.0000 O   0  0  0  0  0  0  0  0  0  0  0  0
    9.5901   -1.1172    0.0000 O   0  0  0  0  0  0  0  0  0  0  0  0
   11.1267   -3.6643    0.0000 O   0  0  0  0  0  0  0  0  0  0  0  0
   10.7568   -2.2840    0.0000 N   0  0  0  0  0  0  0  0  0  0  0  0
    6.6160   -1.1744    0.0000 C   0  0  0  0  0  0  0  0  0  0  0  0
    5.7909   -1.1744    0.0000 C   0  0  0  0  0  0  0  0  0  0  0  0
    7.1993   -1.7578    0.0000 C   0  0  0  0  0  0  0  0  0  0  0  0
    5.2076   -1.7578    0.0000 C   0  0  0  0  0  0  0  0  0  0  0  0
    7.9962   -1.5443    0.0000 C   0  0  0  0  0  0  0  0  0  0  0  0
    5.7909   -0.3494    0.0000 C   0  0  0  0  0  0  0  0  0  0  0  0
    8.2097   -0.7474    0.0000 C   0  0  0  0  0  0  0  0  0  0  0  0
    4.4107   -1.5443    0.0000 C   0  0  0  0  0  0  0  0  0  0  0  0
    9.0067   -0.5338    0.0000 C   0  0  0  0  0  0  0  0  0  0  0  0
    3.8273   -2.1277    0.0000 C   0  0  0  0  0  0  0  0  0  0  0  0
    9.2202    0.2631    0.0000 C   0  0  0  0  0  0  0  0  0  0  0  0
   10.0171    0.4766    0.0000 C   0  0  0  0  0  0  0  0  0  0  0  0
    3.0303   -1.9141    0.0000 C   0  0  0  0  0  0  0  0  0  0  0  0
   10.2306    1.2735    0.0000 C   0  0  0  0  0  0  0  0  0  0  0  0
    9.3766   -1.9141    0.0000 C   0  0  0  0  0  0  0  0  0  0  0  0
    9.9599   -2.4975    0.0000 C   0  0  0  0  0  0  0  0  0  0  0  0
   11.0276    1.4870    0.0000 C   0  0  0  0  0  0  0  0  0  0  0  0
    2.4469   -2.4975    0.0000 C   0  0  0  0  0  0  0  0  0  0  0  0
    9.7464   -3.2944    0.0000 C   0  0  0  0  0  0  0  0  0  0  0  0
   11.2411    2.2840    0.0000 C   0  0  0  0  0  0  0  0  0  0  0  0
    8.9495   -3.5079    0.0000 C   0  0  0  0  0  0  0  0  0  0  0  0
   12.0380    2.4975    0.0000 C   0  0  0  0  0  0  0  0  0  0  0  0
    1.6500   -2.2840    0.0000 C   0  0  0  0  0  0  0  0  0  0  0  0
   12.2515    3.2944    0.0000 C   0  0  0  0  0  0  0  0  0  0  0  0
    8.3661   -2.9245    0.0000 C   0  0  0  0  0  0  0  0  0  0  0  0
    8.7359   -4.3049    0.0000 C   0  0  0  0  0  0  0  0  0  0  0  0
   13.0485    3.5079    0.0000 C   0  0  0  0  0  0  0  0  0  0  0  0
   11.3402   -2.8674    0.0000 C   0  0  0  0  0  0  0  0  0  0  0  0
   13.2620    4.3049    0.0000 C   0  0  0  0  0  0  0  0  0  0  0  0
  1  7  1  0
  1 12  1  0
 11  2  1  0
  2 21  1  0
  3 12  2  0
  4 21  2  0
  5 34  2  0
 22  6  1  0
  6 34  1  0
  7  8  1  0
  7  9  1  1
  8 10  1  6
  8 12  1  0
 11  9  1  6
 10 14  1  0
 11 13  1  0
 13 15  1  0
 14 16  1  0
 15 17  1  0
 16 19  1  0
 17 18  1  0
 18 20  1  0
 19 24  1  0
 20 23  1  0
 21 22  1  0
 22 25  1  1
 23 26  1  0
 24 29  1  0
 25 27  1  0
 26 28  1  0
 27 31  1  0
 27 32  1  0
 28 30  1  0
 30 33  1  0
 33 35  1  0
M  END
$$$$
