1216
     RDKit          2D

 27 30  0  0  1  0  0  0  0  0999 V2000
    6.5853    1.7964    0.0000 O   0  0  0  0  0  0  0  0  0  0  0  0
    1.6500   -2.3715    0.0000 O   0  0  0  0  0  0  0  0  0  0  0  0
    3.1413   -2.4093    0.0000 N   0  0  0  0  0  0  0  0  0  0  0  0
    7.9436    1.3524    0.0000 N   0  0  0  0  0  0  0  0  0  0  0  0
    6.0994   -0.6783    0.0000 C   0  0  0  0  0  0  0  0  0  0  0  0
    6.0994    0.1467    0.0000 C   0  0  0  0  0  0  0  0  0  0  0  0
    5.3849   -1.0908    0.0000 C   0  0  0  0  0  0  0  0  0  0  0  0
    4.6704   -0.6783    0.0000 C   0  0  0  0  0  0  0  0  0  0  0  0
    3.9196   -1.0964    0.0000 C   0  0  0  0  0  0  0  0  0  0  0  0
    6.8800    0.3981    0.0000 C   0  0  0  0  0  0  0  0  0  0  0  0
    5.3849    0.5592    0.0000 C   0  0  0  0  0  0  0  0  0  0  0  0
    4.6704    0.1467    0.0000 C   0  0  0  0  0  0  0  0  0  0  0  0
    6.8800   -0.9297    0.0000 C   0  0  0  0  0  0  0  0  0  0  0  0
    5.3981   -1.9501    0.0000 C   0  0  0  0  0  0  0  0  0  0  0  0
    7.3614   -0.2658    0.0000 C   0  0  0  0  0  0  0  0  0  0  0  0
    3.9130   -1.9558    0.0000 C   0  0  0  0  0  0  0  0  0  0  0  0
    4.6572   -2.3854    0.0000 C   0  0  0  0  0  0  0  0  0  0  0  0
    6.0994    0.9717    0.0000 C   0  0  0  0  0  0  0  0  0  0  0  0
    3.9260   -0.2714    0.0000 C   0  0  0  0  0  0  0  0  0  0  0  0
    3.1550   -0.6310    0.0000 C   0  0  0  0  0  0  0  0  0  0  0  0
    7.1363    1.1823    0.0000 C   0  0  0  0  0  0  0  0  0  0  0  0
    2.3730   -1.0667    0.0000 C   0  0  0  0  0  0  0  0  0  0  0  0
    2.3660   -1.9617    0.0000 C   0  0  0  0  0  0  0  0  0  0  0  0
    8.1998    2.1366    0.0000 C   0  0  0  0  0  0  0  0  0  0  0  0
    8.4561    2.9208    0.0000 C   0  0  0  0  0  0  0  0  0  0  0  0
    8.9841    1.8804    0.0000 C   0  0  0  0  0  0  0  0  0  0  0  0
    7.4157    2.3929    0.0000 C   0  0  0  0  0  0  0  0  0  0  0  0
  1 21  2  0
  2 23  2  0
  3 16  1  0
  3 23  1  0
  4 21  1  0
  4 24  1  0
  5  6  1  0
  5  7  1  0
  5 13  1  1
  6 10  1  0
  6 11  1  0
  6 18  1  1
  7  8  1  0
  7 14  1  6
  8  9  1  0
  8 12  1  1
  9 16  1  0
  9 19  1  1
  9 20  1  0
 10 15  1  0
 10 21  1  1
 11 12  1  0
 13 15  1  0
 14 17  1  0
 16 17  1  1
 20 22  2  0
 22 23  1  0
 24 25  1  0
 24 26  1  0
 24 27  1  0
M  END
$$$$
