1615
     RDKit          2D

 23 25  0  0  1  0  0  0  0  0999 V2000
    3.6958   -1.9664    0.0000 S   0  0  0  0  0  0  0  0  0  0  0  0
    6.4888    0.4289    0.0000 O   0  0  0  0  0  0  0  0  0  0  0  0
    3.6958   -0.3823    0.0000 N   0  0  0  0  0  0  0  0  0  0  0  0
    3.0099    1.5979    0.0000 N   0  0  0  0  0  0  0  0  0  0  0  0
    3.0099    0.8058    0.0000 C   0  0  0  0  0  0  0  0  0  0  0  0
    3.6958    0.4098    0.0000 C   0  0  0  0  0  0  0  0  0  0  0  0
    4.3818   -0.7783    0.0000 C   0  0  0  0  0  0  0  0  0  0  0  0
    3.0099   -0.7783    0.0000 C   0  0  0  0  0  0  0  0  0  0  0  0
    2.3240    0.4098    0.0000 C   0  0  0  0  0  0  0  0  0  0  0  0
    4.3818   -1.5704    0.0000 C   0  0  0  0  0  0  0  0  0  0  0  0
    3.0099   -1.5704    0.0000 C   0  0  0  0  0  0  0  0  0  0  0  0
    5.0899   -0.3548    0.0000 C   0  0  0  0  0  0  0  0  0  0  0  0
    2.3240    1.9939    0.0000 C   0  0  0  0  0  0  0  0  0  0  0  0
    3.6958    1.9939    0.0000 C   0  0  0  0  0  0  0  0  0  0  0  0
    2.3018   -0.3548    0.0000 C   0  0  0  0  0  0  0  0  0  0  0  0
    5.8075   -0.7619    0.0000 C   0  0  0  0  0  0  0  0  0  0  0  0
    5.0899   -1.9939    0.0000 C   0  0  0  0  0  0  0  0  0  0  0  0
    2.3018   -1.9939    0.0000 C   0  0  0  0  0  0  0  0  0  0  0  0
    5.8075   -1.5869    0.0000 C   0  0  0  0  0  0  0  0  0  0  0  0
    1.5841   -0.7619    0.0000 C   0  0  0  0  0  0  0  0  0  0  0  0
    1.5841   -1.5869    0.0000 C   0  0  0  0  0  0  0  0  0  0  0  0
    6.4920   -0.3632    0.0000 C   0  0  0  0  0  0  0  0  0  0  0  0
    7.1794   -0.7565    0.0000 C   0  0  0  0  0  0  0  0  0  0  0  0
  1 10  1  0
  1 11  1  0
  2 22  2  0
  3  6  1  0
  3  7  1  0
  3  8  1  0
  4  5  1  0
  4 13  1  0
  4 14  1  0
  5  6  1  0
  5  9  1  0
  7 10  2  0
  7 12  1  0
  8 11  2  0
  8 15  1  0
 10 17  1  0
 11 18  1  0
 12 16  2  0
 15 20  2  0
 16 19  1  0
 16 22  1  0
 17 19  2  0
 18 21  2  0
 20 21  1  0
 22 23  1  0
M  END
$$$$
