 
     RDKit          2D

 66 74  0  0  1  0  0  0  0  0999 V2000
   11.7501  -10.4231    0.0000 C   0  0  0  0  0  0  0  0  0  0  0  0
   11.7535   -9.5952    0.0000 C   0  0  0  0  0  0  0  0  0  0  0  0
   11.0394   -9.1789    0.0000 C   0  0  0  0  0  0  0  0  0  0  0  0
   10.3219   -9.5893    0.0000 C   0  0  0  0  0  0  0  0  0  0  0  0
   10.3185  -10.4171    0.0000 C   0  0  0  0  0  0  0  0  0  0  0  0
   11.0325  -10.8334    0.0000 O   0  0  0  0  0  0  0  0  0  0  0  0
   11.0428   -8.3556    0.0000 O   0  0  0  0  0  0  0  0  0  0  0  0
    9.6072   -9.1727    0.0000 O   0  0  0  0  0  0  0  0  0  0  0  0
    9.5984  -10.8289    0.0000 C   0  0  0  0  0  0  0  0  0  0  0  0
   14.6157   -9.5952    0.0000 C   0  0  0  0  0  0  0  0  0  0  0  0
   13.9131   -9.1818    0.0000 O   0  0  0  0  0  0  0  0  0  0  0  0
   13.1692   -9.5952    0.0000 C   0  0  0  0  0  0  0  0  0  0  0  0
   13.1692  -10.4218    0.0000 C   0  0  0  0  0  0  0  0  0  0  0  0
   13.8718  -10.8350    0.0000 C   0  0  0  0  0  0  0  0  0  0  0  0
   14.6157  -10.4218    0.0000 C   0  0  0  0  0  0  0  0  0  0  0  0
   22.3855   -9.2231    0.0000 C   0  0  0  0  0  0  0  0  0  0  0  0
   21.6829   -9.6365    0.0000 C   0  0  0  0  0  0  0  0  0  0  0  0
   22.3855   -8.3967    0.0000 C   0  0  0  0  0  0  0  0  0  0  0  0
   20.9803   -9.2231    0.0000 C   0  0  0  0  0  0  0  0  0  0  0  0
   21.6829  -10.4218    0.0000 C   0  0  0  0  0  0  0  0  0  0  0  0
   21.6829   -8.0246    0.0000 C   0  0  0  0  0  0  0  0  0  0  0  0
   22.3442   -7.6940    0.0000 C   0  0  0  0  0  0  0  0  0  0  0  0
   20.2778   -9.5952    0.0000 C   0  0  0  0  0  0  0  0  0  0  0  0
   20.9803   -8.3967    0.0000 C   0  0  0  0  0  0  0  0  0  0  0  0
   20.9803  -10.8350    0.0000 C   0  0  0  0  0  0  0  0  0  0  0  0
   20.2778  -10.4218    0.0000 C   0  0  0  0  0  0  0  0  0  0  0  0
   19.5751   -9.2231    0.0000 C   0  0  0  0  0  0  0  0  0  0  0  0
   20.2778   -8.8512    0.0000 C   0  0  0  0  0  0  0  0  0  0  0  0
   19.5751  -10.8350    0.0000 C   0  0  0  0  0  0  0  0  0  0  0  0
   18.8725   -9.5952    0.0000 C   0  0  0  0  0  0  0  0  0  0  0  0
   18.8725  -10.4218    0.0000 C   0  0  0  0  0  0  0  0  0  0  0  0
   21.6829   -7.1980    0.0000 O   0  0  0  0  0  0  0  0  0  0  0  0
   23.1294   -9.4712    0.0000 C   0  0  0  0  0  0  0  0  0  0  0  0
   23.6252   -8.8512    0.0000 C   0  0  0  0  0  0  0  0  0  0  0  0
   23.1708   -8.1899    0.0000 C   0  0  0  0  0  0  0  0  0  0  0  0
   23.4186   -7.4048    0.0000 C   0  0  0  0  0  0  0  0  0  0  0  0
   24.2039   -7.1567    0.0000 C   0  0  0  0  0  0  0  0  0  0  0  0
   24.2039   -6.3302    0.0000 C   0  0  0  0  0  0  0  0  0  0  0  0
   23.4186   -6.0409    0.0000 O   0  0  0  0  0  0  0  0  0  0  0  0
   22.9227   -6.7435    0.0000 C   0  0  0  0  0  0  0  0  0  0  0  0
   24.8652   -5.8342    0.0000 O   0  0  0  0  0  0  0  0  0  0  0  0
   18.1700  -10.8350    0.0000 O   0  0  0  0  0  0  0  0  0  0  0  0
   17.4674  -10.4218    0.0000 C   0  0  0  0  0  0  0  0  0  0  0  0
   17.4674   -9.5952    0.0000 C   0  0  0  0  0  0  0  0  0  0  0  0
   16.7234   -9.1818    0.0000 C   0  0  0  0  0  0  0  0  0  0  0  0
   16.0209   -9.5952    0.0000 C   0  0  0  0  0  0  0  0  0  0  0  0
   16.0209  -10.4218    0.0000 C   0  0  0  0  0  0  0  0  0  0  0  0
   16.7234  -10.8350    0.0000 O   0  0  0  0  0  0  0  0  0  0  0  0
   16.7234   -8.3553    0.0000 O   0  0  0  0  0  0  0  0  0  0  0  0
   15.3183   -9.1818    0.0000 O   0  0  0  0  0  0  0  0  0  0  0  0
   15.3183  -10.8350    0.0000 C   0  0  0  0  0  0  0  0  0  0  0  0
   12.4568   -9.1759    0.0000 C   0  0  0  0  0  0  0  0  0  0  0  0
   12.4518  -10.8321    0.0000 O   0  0  0  0  0  0  0  0  0  0  0  0
   13.8617  -11.6615    0.0000 O   0  0  0  0  0  0  0  0  0  0  0  0
    9.6072   -8.3462    0.0000 C   0  0  0  0  0  0  0  0  0  0  0  0
   10.3248   -7.9317    0.0000 O   0  0  0  0  0  0  0  0  0  0  0  0
   10.3248   -7.1052    0.0000 C   0  0  0  0  0  0  0  0  0  0  0  0
    9.6089   -6.6919    0.0000 C   0  0  0  0  0  0  0  0  0  0  0  0
    8.8914   -7.1063    0.0000 C   0  0  0  0  0  0  0  0  0  0  0  0
    8.8914   -7.9328    0.0000 C   0  0  0  0  0  0  0  0  0  0  0  0
    8.1647   -6.6865    0.0000 O   0  0  0  0  0  0  0  0  0  0  0  0
   11.0308   -6.6977    0.0000 C   0  0  0  0  0  0  0  0  0  0  0  0
    8.1565   -8.3572    0.0000 O   0  0  0  0  0  0  0  0  0  0  0  0
    9.6090   -5.8756    0.0000 O   0  0  0  0  0  0  0  0  0  0  0  0
   11.7405   -7.1075    0.0000 O   0  0  0  0  0  0  0  0  0  0  0  0
   22.3855  -10.0497    0.0000 O   0  0  0  0  0  0  0  0  0  0  0  0
  1  2  1  0
  2  3  1  0
  3  4  1  0
  4  5  1  0
  5  6  1  0
  1  6  1  0
  3  7  1  1
  4  8  1  1
  5  9  1  6
 10 11  1  0
 11 12  1  0
 12 13  1  0
 13 14  1  0
 14 15  1  0
 10 15  1  0
 16 17  1  0
 16 18  1  0
 17 19  1  0
 17 20  1  6
 18 21  1  0
 18 22  1  1
 19 23  1  0
 19 24  1  1
 20 25  1  0
 23 26  1  0
 23 27  1  0
 23 28  1  1
 26 29  1  6
 27 30  1  0
 29 31  1  0
 21 24  1  0
 25 26  1  0
 30 31  1  0
 21 32  1  1
 16 33  1  0
 33 34  1  0
 34 35  1  0
 18 35  1  0
 35 36  1  1
 36 37  2  0
 37 38  1  0
 38 39  1  0
 39 40  1  0
 36 40  1  0
 38 41  2  0
 43 42  1  6
 43 44  1  0
 44 45  1  0
 45 46  1  0
 46 47  1  0
 47 48  1  0
 43 48  1  0
 31 42  1  1
 45 49  1  1
 46 50  1  1
 47 51  1  6
 10 50  1  1
 12 52  1  1
 13 53  1  6
 14 54  1  6
  1 53  1  6
 55  8  1  1
 55 56  1  0
 56 57  1  0
 57 58  1  0
 58 59  1  0
 59 60  1  0
 55 60  1  0
 59 61  1  1
 57 62  1  1
 60 63  1  6
 58 64  1  6
 62 65  1  0
 16 66  1  1
M  END
$$$$
