1115
     RDKit          2D

 25 26  0  0  0  0  0  0  0  0999 V2000
    6.6515   -0.5693    0.0000 O   0  0  0  0  0  0  0  0  0  0  0  0
    2.3645   -0.5693    0.0000 O   0  0  0  0  0  0  0  0  0  0  0  0
    5.9370    0.6683    0.0000 O   0  0  0  0  0  0  0  0  0  0  0  0
    3.0791    0.6683    0.0000 O   0  0  0  0  0  0  0  0  0  0  0  0
    5.9370    2.3183    0.0000 O   0  0  0  0  0  0  0  0  0  0  0  0
    6.6515    1.0808    0.0000 O   0  0  0  0  0  0  0  0  0  0  0  0
    4.5080   -1.8068    0.0000 N   0  0  0  0  0  0  0  0  0  0  0  0
    5.9370    1.4933    0.0000 N   0  0  0  0  0  0  0  0  0  0  0  0
    4.5080   -0.1568    0.0000 C   0  0  0  0  0  0  0  0  0  0  0  0
    5.2224   -0.5693    0.0000 C   0  0  0  0  0  0  0  0  0  0  0  0
    3.7935   -0.5693    0.0000 C   0  0  0  0  0  0  0  0  0  0  0  0
    4.5080    0.6683    0.0000 C   0  0  0  0  0  0  0  0  0  0  0  0
    5.2224   -1.3943    0.0000 C   0  0  0  0  0  0  0  0  0  0  0  0
    3.7935   -1.3943    0.0000 C   0  0  0  0  0  0  0  0  0  0  0  0
    5.2224    1.0808    0.0000 C   0  0  0  0  0  0  0  0  0  0  0  0
    3.7935    1.0808    0.0000 C   0  0  0  0  0  0  0  0  0  0  0  0
    5.9370   -0.1568    0.0000 C   0  0  0  0  0  0  0  0  0  0  0  0
    3.0791   -0.1568    0.0000 C   0  0  0  0  0  0  0  0  0  0  0  0
    5.9370   -1.8068    0.0000 C   0  0  0  0  0  0  0  0  0  0  0  0
    3.0791   -1.8068    0.0000 C   0  0  0  0  0  0  0  0  0  0  0  0
    5.2224    1.9058    0.0000 C   0  0  0  0  0  0  0  0  0  0  0  0
    3.7935    1.9058    0.0000 C   0  0  0  0  0  0  0  0  0  0  0  0
    4.5080    2.3183    0.0000 C   0  0  0  0  0  0  0  0  0  0  0  0
    7.3659   -0.1568    0.0000 C   0  0  0  0  0  0  0  0  0  0  0  0
    1.6500   -0.1568    0.0000 C   0  0  0  0  0  0  0  0  0  0  0  0
  1 17  1  0
  1 24  1  0
  2 18  1  0
  2 25  1  0
  3 17  2  0
  4 18  2  0
  5  8  1  0
  6  8  2  0
  7 13  1  0
  7 14  1  0
  8 15  1  0
  9 10  1  0
  9 11  1  0
  9 12  1  0
 10 13  2  0
 10 17  1  0
 11 14  2  0
 11 18  1  0
 12 15  2  0
 12 16  1  0
 13 19  1  0
 14 20  1  0
 15 21  1  0
 16 22  2  0
 21 23  2  0
 22 23  1  0
M  CHG  2   5  -1   8   1
M  END
$$$$
