1194
     RDKit          2D

 23 24  0  0  1  0  0  0  0  0999 V2000
    5.9370    1.4991    0.0000 S   0  0  0  0  0  0  0  0  0  0  0  0
    7.4321    1.3379    0.0000 S   0  0  0  0  0  0  0  0  0  0  0  0
    8.7386    0.6740    0.0000 S   0  0  0  0  0  0  0  0  0  0  0  0
    6.3495    2.2135    0.0000 O   0  0  0  0  0  0  0  0  0  0  0  0
    5.5245    2.2135    0.0000 O   0  0  0  0  0  0  0  0  0  0  0  0
    2.3645    1.0865    0.0000 O   0  0  0  0  0  0  0  0  0  0  0  0
    8.7386    1.4991    0.0000 O   0  0  0  0  0  0  0  0  0  0  0  0
    8.7386   -0.1510    0.0000 O   0  0  0  0  0  0  0  0  0  0  0  0
    5.2224    1.0865    0.0000 N   0  0  0  0  0  0  0  0  0  0  0  0
    5.9370   -0.9760    0.0000 N   0  0  0  0  0  0  0  0  0  0  0  0
    9.5636    0.6740    0.0000 N   0  0  0  0  0  0  0  0  0  0  0  0
    5.9370   -0.1510    0.0000 C   0  0  0  0  0  0  0  0  0  0  0  0
    5.2224    0.2615    0.0000 C   0  0  0  0  0  0  0  0  0  0  0  0
    6.6515    0.2615    0.0000 C   0  0  0  0  0  0  0  0  0  0  0  0
    6.6515    1.0865    0.0000 C   0  0  0  0  0  0  0  0  0  0  0  0
    4.5080    1.4991    0.0000 C   0  0  0  0  0  0  0  0  0  0  0  0
    7.4321    0.0101    0.0000 C   0  0  0  0  0  0  0  0  0  0  0  0
    3.7935    1.0865    0.0000 C   0  0  0  0  0  0  0  0  0  0  0  0
    7.9136    0.6740    0.0000 C   0  0  0  0  0  0  0  0  0  0  0  0
    5.2224   -1.3885    0.0000 C   0  0  0  0  0  0  0  0  0  0  0  0
    3.0791    1.4991    0.0000 C   0  0  0  0  0  0  0  0  0  0  0  0
    5.2224   -2.2135    0.0000 C   0  0  0  0  0  0  0  0  0  0  0  0
    1.6500    1.4991    0.0000 C   0  0  0  0  0  0  0  0  0  0  0  0
  1  4  2  0
  1  5  2  0
  1  9  1  0
  1 15  1  0
  2 15  1  0
  2 19  1  0
  3  7  2  0
  3  8  2  0
  3 11  1  0
  3 19  1  0
  6 21  1  0
  6 23  1  0
  9 13  1  0
  9 16  1  0
 12 10  1  1
 10 20  1  0
 12 13  1  0
 12 14  1  0
 14 15  2  0
 14 17  1  0
 16 18  1  0
 17 19  2  0
 18 21  1  0
 20 22  1  0
M  END
$$$$
