1086
     RDKit          2D

 12 12  0  0  0  0  0  0  0  0999 V2000
    3.0791    1.3654    0.0000 O   0  0  0  0  0  0  0  0  0  0  0  0
    1.6500    1.3654    0.0000 O   0  0  0  0  0  0  0  0  0  0  0  0
    2.3645   -2.3472    0.0000 N   0  0  0  0  0  0  0  0  0  0  0  0
    2.3645    0.1279    0.0000 C   0  0  0  0  0  0  0  0  0  0  0  0
    3.0791   -0.2846    0.0000 C   0  0  0  0  0  0  0  0  0  0  0  0
    1.6500   -0.2846    0.0000 C   0  0  0  0  0  0  0  0  0  0  0  0
    2.3645   -1.5222    0.0000 C   0  0  0  0  0  0  0  0  0  0  0  0
    3.0791   -1.1096    0.0000 C   0  0  0  0  0  0  0  0  0  0  0  0
    1.6500   -1.1096    0.0000 C   0  0  0  0  0  0  0  0  0  0  0  0
    2.3645    0.9529    0.0000 C   0  0  0  0  0  0  0  0  0  0  0  0
    3.0791    2.1904    0.0000 C   0  0  0  0  0  0  0  0  0  0  0  0
    3.7935    2.6029    0.0000 C   0  0  0  0  0  0  0  0  0  0  0  0
  1 10  1  0
  1 11  1  0
  2 10  2  0
  3  7  1  0
  4  5  2  0
  4  6  1  0
  4 10  1  0
  5  8  1  0
  6  9  2  0
  7  8  2  0
  7  9  1  0
 11 12  1  0
M  END
$$$$
