1025
     RDKit          2D

 22 24  0  0  0  0  0  0  0  0999 V2000
    5.2784   -1.1104    0.0000 O   0  0  0  0  0  0  0  0  0  0  0  0
    5.2784    1.3645    0.0000 O   0  0  0  0  0  0  0  0  0  0  0  0
    8.1875    1.3844    0.0000 O   0  0  0  0  0  0  0  0  0  0  0  0
    8.9067    0.1497    0.0000 O   0  0  0  0  0  0  0  0  0  0  0  0
    6.7303   -1.1391    0.0000 N   0  0  0  0  0  0  0  0  0  0  0  0
    8.1907   -1.1304    0.0000 N   0  0  0  0  0  0  0  0  0  0  0  0
    2.3660    0.5594    0.0000 C   0  0  0  0  0  0  0  0  0  0  0  0
    3.0789    0.1442    0.0000 C   0  0  0  0  0  0  0  0  0  0  0  0
    4.5639    0.1270    0.0000 C   0  0  0  0  0  0  0  0  0  0  0  0
    3.8264    0.5681    0.0000 C   0  0  0  0  0  0  0  0  0  0  0  0
    4.5639   -0.6979    0.0000 C   0  0  0  0  0  0  0  0  0  0  0  0
    3.0789   -0.7151    0.0000 C   0  0  0  0  0  0  0  0  0  0  0  0
    5.9928    0.1270    0.0000 C   0  0  0  0  0  0  0  0  0  0  0  0
    5.2784    0.5395    0.0000 C   0  0  0  0  0  0  0  0  0  0  0  0
    1.6500    0.1497    0.0000 C   0  0  0  0  0  0  0  0  0  0  0  0
    2.3692    1.3844    0.0000 C   0  0  0  0  0  0  0  0  0  0  0  0
    3.8264   -1.1391    0.0000 C   0  0  0  0  0  0  0  0  0  0  0  0
    5.9928   -0.6979    0.0000 C   0  0  0  0  0  0  0  0  0  0  0  0
    6.7303    0.5681    0.0000 C   0  0  0  0  0  0  0  0  0  0  0  0
    7.4778    0.1442    0.0000 C   0  0  0  0  0  0  0  0  0  0  0  0
    7.4778   -0.7151    0.0000 C   0  0  0  0  0  0  0  0  0  0  0  0
    8.1907    0.5594    0.0000 C   0  0  0  0  0  0  0  0  0  0  0  0
  1 11  1  0
  1 18  1  0
  2 14  2  0
  3 22  1  0
  4 22  2  0
  5 18  2  0
  5 21  1  0
  6 21  1  0
  7  8  1  0
  7 15  1  0
  7 16  1  0
  8 10  2  0
  8 12  1  0
  9 10  1  0
  9 11  2  0
  9 14  1  0
 11 17  1  0
 12 17  2  0
 13 14  1  0
 13 18  1  0
 13 19  2  0
 19 20  1  0
 20 21  2  0
 20 22  1  0
M  END
$$$$
