1108
     RDKit          2D

 24 28  0  0  1  0  0  0  0  0999 V2000
    5.1232   -1.6148    0.0000 O   0  0  0  0  0  0  0  0  0  0  0  0
    3.3475    3.0349    0.0000 O   0  0  0  0  0  0  0  0  0  0  0  0
    3.6981   -3.2579    0.0000 O   0  0  0  0  0  0  0  0  0  0  0  0
    1.5934   -2.8376    0.0000 N   0  0  0  0  0  0  0  0  0  0  0  0
    3.7078   -0.8126    0.0000 C   0  0  0  0  0  0  0  0  0  0  0  0
    4.3977   -1.2109    0.0000 C   0  0  0  0  0  0  0  0  0  0  0  0
    3.7078   -0.0158    0.0000 C   0  0  0  0  0  0  0  0  0  0  0  0
    4.3977    0.3825    0.0000 C   0  0  0  0  0  0  0  0  0  0  0  0
    4.4106    1.2122    0.0000 C   0  0  0  0  0  0  0  0  0  0  0  0
    3.6951    1.6327    0.0000 C   0  0  0  0  0  0  0  0  0  0  0  0
    4.4106   -2.0408    0.0000 C   0  0  0  0  0  0  0  0  0  0  0  0
    5.0878   -0.8126    0.0000 C   0  0  0  0  0  0  0  0  0  0  0  0
    5.0878   -0.0158    0.0000 C   0  0  0  0  0  0  0  0  0  0  0  0
    2.9828    0.3880    0.0000 C   0  0  0  0  0  0  0  0  0  0  0  0
    2.9764    1.2177    0.0000 C   0  0  0  0  0  0  0  0  0  0  0  0
    2.9828   -1.2164    0.0000 C   0  0  0  0  0  0  0  0  0  0  0  0
    5.0264    1.7611    0.0000 C   0  0  0  0  0  0  0  0  0  0  0  0
    3.8750    2.4379    0.0000 C   0  0  0  0  0  0  0  0  0  0  0  0
    3.0178   -0.4142    0.0000 C   0  0  0  0  0  0  0  0  0  0  0  0
    4.6962    2.5171    0.0000 C   0  0  0  0  0  0  0  0  0  0  0  0
    3.6951   -2.4612    0.0000 C   0  0  0  0  0  0  0  0  0  0  0  0
    3.0082    2.0364    0.0000 C   0  0  0  0  0  0  0  0  0  0  0  0
    2.9764   -2.0463    0.0000 C   0  0  0  0  0  0  0  0  0  0  0  0
    2.2849   -2.4420    0.0000 C   0  0  0  0  0  0  0  0  0  0  0  0
  6  1  1  0
 11  1  1  6
 18  2  1  1
  3 21  1  0
  4 24  3  0
  5  6  1  0
  5  7  1  0
  5 16  1  0
  5 19  1  1
  6 11  1  0
  6 12  1  1
  7  8  1  0
  7 14  1  1
  8  9  1  0
  8 13  1  6
  9 10  1  0
  9 17  1  1
 10 15  1  0
 10 18  1  0
 10 22  1  1
 11 21  1  0
 12 13  1  0
 14 15  1  0
 16 23  1  0
 17 20  1  0
 18 20  1  0
 21 23  2  0
 23 24  1  0
M  END
$$$$
