1427
     RDKit          2D

 14 15  0  0  0  0  0  0  0  0999 V2000
    2.0930   -1.1880    0.0000 O   0  0  0  0  0  0  0  0  0  0  0  0
    3.5220   -1.1880    0.0000 N   0  0  0  0  0  0  0  0  0  0  0  0
    2.0930    0.4620    0.0000 N   0  0  0  0  0  0  0  0  0  0  0  0
    6.3799    1.2870    0.0000 N   0  0  0  0  0  0  0  0  0  0  0  0
    4.2365    0.0495    0.0000 C   0  0  0  0  0  0  0  0  0  0  0  0
    4.9509    0.4620    0.0000 C   0  0  0  0  0  0  0  0  0  0  0  0
    3.5220    0.4620    0.0000 C   0  0  0  0  0  0  0  0  0  0  0  0
    4.2365   -0.7755    0.0000 C   0  0  0  0  0  0  0  0  0  0  0  0
    2.8075    0.0495    0.0000 C   0  0  0  0  0  0  0  0  0  0  0  0
    2.8075   -0.7755    0.0000 C   0  0  0  0  0  0  0  0  0  0  0  0
    4.9509    1.2870    0.0000 C   0  0  0  0  0  0  0  0  0  0  0  0
    5.6655    0.0495    0.0000 C   0  0  0  0  0  0  0  0  0  0  0  0
    5.6655    1.6995    0.0000 C   0  0  0  0  0  0  0  0  0  0  0  0
    6.3799    0.4620    0.0000 C   0  0  0  0  0  0  0  0  0  0  0  0
  1 10  2  0
  2  8  1  0
  2 10  1  0
  3  9  1  0
  4 13  2  0
  4 14  1  0
  5  6  1  0
  5  7  1  0
  5  8  2  0
  6 11  2  0
  6 12  1  0
  7  9  2  0
  9 10  1  0
 11 13  1  0
 12 14  2  0
M  END
$$$$
