1028
     RDKit          2D

  8  7  0  0  0  0  0  0  0  0999 V2000
    4.5080   -0.2615    0.0000 Cl  0  0  0  0  0  0  0  0  0  0  0  0
    3.7935    0.9760    0.0000 Cl  0  0  0  0  0  0  0  0  0  0  0  0
    2.6665    0.4529    0.0000 F   0  0  0  0  0  0  0  0  0  0  0  0
    3.4916   -0.9760    0.0000 F   0  0  0  0  0  0  0  0  0  0  0  0
    2.3645   -0.6740    0.0000 O   0  0  0  0  0  0  0  0  0  0  0  0
    3.0791   -0.2615    0.0000 C   0  0  0  0  0  0  0  0  0  0  0  0
    3.7935    0.1510    0.0000 C   0  0  0  0  0  0  0  0  0  0  0  0
    1.6500   -0.2615    0.0000 C   0  0  0  0  0  0  0  0  0  0  0  0
  1  7  1  0
  2  7  1  0
  3  6  1  0
  4  6  1  0
  5  6  1  0
  5  8  1  0
  6  7  1  0
M  END
$$$$
