1008
     RDKit          2D

 14 13  0  0  0  0  0  0  0  0999 V2000
    7.3659    0.2063    0.0000 S   0  0  0  0  0  0  0  0  0  0  0  0
    2.3645   -0.2063    0.0000 S   0  0  0  0  0  0  0  0  0  0  0  0
    6.6515   -0.2063    0.0000 O   0  0  0  0  0  0  0  0  0  0  0  0
    3.0791    0.2063    0.0000 O   0  0  0  0  0  0  0  0  0  0  0  0
    7.7784   -0.5082    0.0000 O   0  0  0  0  0  0  0  0  0  0  0  0
    6.9534    0.9207    0.0000 O   0  0  0  0  0  0  0  0  0  0  0  0
    1.9520    0.5082    0.0000 O   0  0  0  0  0  0  0  0  0  0  0  0
    2.7770   -0.9207    0.0000 O   0  0  0  0  0  0  0  0  0  0  0  0
    5.2224   -0.2063    0.0000 C   0  0  0  0  0  0  0  0  0  0  0  0
    4.5080    0.2063    0.0000 C   0  0  0  0  0  0  0  0  0  0  0  0
    5.9370    0.2063    0.0000 C   0  0  0  0  0  0  0  0  0  0  0  0
    3.7935   -0.2063    0.0000 C   0  0  0  0  0  0  0  0  0  0  0  0
    8.0804    0.6188    0.0000 C   0  0  0  0  0  0  0  0  0  0  0  0
    1.6500   -0.6188    0.0000 C   0  0  0  0  0  0  0  0  0  0  0  0
  1  3  1  0
  1  5  2  0
  1  6  2  0
  1 13  1  0
  2  4  1  0
  2  7  2  0
  2  8  2  0
  2 14  1  0
  3 11  1  0
  4 12  1  0
  9 10  1  0
  9 11  1  0
 10 12  1  0
M  END
$$$$
