
     RDKit          2D

 35 38  0  0  1  0  0  0  0  0999 V2000
   13.7004  -18.7316    0.0000 S   0  0  0  0  0  0  0  0  0  0  0  0
   12.9859  -19.1441    0.0000 C   0  0  0  0  0  0  0  0  0  0  0  0
   12.9859  -19.9691    0.0000 N   0  0  0  0  0  0  0  0  0  0  0  0
   13.7004  -20.3816    0.0000 C   0  0  0  0  0  0  0  0  0  0  0  0
   14.4148  -19.9691    0.0000 C   0  0  0  0  0  0  0  0  0  0  0  0
   14.4148  -19.1441    0.0000 C   0  0  0  0  0  0  0  0  0  0  0  0
   12.1609  -19.1441    0.0000 C   0  0  0  0  0  0  0  0  0  0  0  0
   12.1609  -19.9691    0.0000 C   0  0  0  0  0  0  0  0  0  0  0  0
   13.7004  -21.2066    0.0000 C   0  0  0  0  0  0  0  0  0  0  0  0
   12.9859  -21.6191    0.0000 O   0  0  0  0  0  0  0  0  0  0  0  0
   14.4148  -21.6191    0.0000 O   0  0  0  0  0  0  0  0  0  0  0  0
   11.5775  -20.5525    0.0000 O   0  0  0  0  0  0  0  0  0  0  0  0
   11.4464  -18.7316    0.0000 N   0  0  0  0  0  0  0  0  0  0  0  0
   10.7319  -19.1441    0.0000 C   0  0  0  0  0  0  0  0  0  0  0  0
   10.0175  -18.7316    0.0000 C   0  0  0  0  0  0  0  0  0  0  0  0
    9.3030  -19.1441    0.0000 C   0  0  0  0  0  0  0  0  0  0  0  0
   10.7319  -19.9691    0.0000 O   0  0  0  0  0  0  0  0  0  0  0  0
   15.1293  -20.3816    0.0000 C   0  0  0  0  0  0  0  0  0  0  0  0
   15.8438  -19.9691    0.0000 S   0  0  0  0  0  0  0  0  0  0  0  0
   17.5112  -21.3163    0.0000 N   0  0  0  0  0  0  0  0  0  0  0  0
   17.8786  -20.5776    0.0000 N   0  0  0  0  0  0  0  0  0  0  0  0
   17.2897  -20.0000    0.0000 N   0  0  0  0  0  0  0  0  0  0  0  0
   16.5582  -20.3816    0.0000 C   0  0  0  0  0  0  0  0  0  0  0  0
   16.6951  -21.1951    0.0000 N   0  0  0  0  0  0  0  0  0  0  0  0
   17.3971  -19.1750    0.0000 C   0  0  0  0  0  0  0  0  0  0  0  0
    8.5885  -18.7316    0.0000 C   0  0  0  0  0  0  0  0  0  0  0  0
    7.8741  -19.1441    0.0000 C   0  0  0  0  0  0  0  0  0  0  0  0
    7.8741  -19.9691    0.0000 C   0  0  0  0  0  0  0  0  0  0  0  0
    8.5885  -20.3816    0.0000 C   0  0  0  0  0  0  0  0  0  0  0  0
    9.3030  -19.9691    0.0000 C   0  0  0  0  0  0  0  0  0  0  0  0
   10.0175  -17.9066    0.0000 O   0  0  0  0  0  0  0  0  0  0  0  0
   18.1116  -18.7625    0.0000 S   0  0  0  0  0  0  0  0  0  0  0  0
   18.8260  -18.3500    0.0000 O   0  0  0  0  0  0  0  0  0  0  0  0
   17.6991  -18.0480    0.0000 O   0  0  0  0  0  0  0  0  0  0  0  0
   18.5241  -19.4770    0.0000 O   0  0  0  0  0  0  0  0  0  0  0  0
  2  1  1  1
  2  3  1  0
  3  4  1  0
  4  5  2  0
  5  6  1  0
  1  6  1  0
  2  7  1  0
  3  8  1  0
  7  8  1  0
  4  9  1  0
  9 10  2  0
  9 11  1  0
  8 12  2  0
  7 13  1  1
 13 14  1  0
 14 15  1  0
 15 16  1  0
 14 17  2  0
  5 18  1  0
 18 19  1  0
 19 23  1  0
 20 21  2  0
 21 22  1  0
 22 23  1  0
 23 24  2  0
 20 24  1  0
 22 25  1  0
 30 16  1  0
 26 16  2  0
 26 27  1  0
 27 28  2  0
 28 29  1  0
 29 30  2  0
 15 31  1  1
 25 32  1  0
 32 33  1  0
 32 34  2  0
 32 35  2  0
M  END
$$$$
