1233
     RDKit          2D

 20 20  0  0  0  0  0  0  0  0999 V2000
    5.2224   -2.5534    0.0000 Cl  0  0  0  0  0  0  0  0  0  0  0  0
    2.3645   -0.9034    0.0000 O   0  0  0  0  0  0  0  0  0  0  0  0
    3.0791    0.3341    0.0000 O   0  0  0  0  0  0  0  0  0  0  0  0
    5.2224    2.3967    0.0000 N   0  0  0  0  0  0  0  0  0  0  0  0
    4.5080    0.3341    0.0000 N   0  0  0  0  0  0  0  0  0  0  0  0
    3.7935   -3.3784    0.0000 N   0  0  0  0  0  0  0  0  0  0  0  0
    5.2224    1.5717    0.0000 C   0  0  0  0  0  0  0  0  0  0  0  0
    5.9370    2.8092    0.0000 C   0  0  0  0  0  0  0  0  0  0  0  0
    4.5080    2.8092    0.0000 C   0  0  0  0  0  0  0  0  0  0  0  0
    4.5080    1.1592    0.0000 C   0  0  0  0  0  0  0  0  0  0  0  0
    5.9370    3.6342    0.0000 C   0  0  0  0  0  0  0  0  0  0  0  0
    4.5080    3.6342    0.0000 C   0  0  0  0  0  0  0  0  0  0  0  0
    3.7935   -0.0784    0.0000 C   0  0  0  0  0  0  0  0  0  0  0  0
    3.7935   -0.9034    0.0000 C   0  0  0  0  0  0  0  0  0  0  0  0
    3.0791   -1.3159    0.0000 C   0  0  0  0  0  0  0  0  0  0  0  0
    4.5080   -1.3159    0.0000 C   0  0  0  0  0  0  0  0  0  0  0  0
    3.0791   -2.1409    0.0000 C   0  0  0  0  0  0  0  0  0  0  0  0
    3.7935   -2.5534    0.0000 C   0  0  0  0  0  0  0  0  0  0  0  0
    4.5080   -2.1409    0.0000 C   0  0  0  0  0  0  0  0  0  0  0  0
    1.6500   -1.3159    0.0000 C   0  0  0  0  0  0  0  0  0  0  0  0
  1 19  1  0
  2 15  1  0
  2 20  1  0
  3 13  2  0
  4  7  1  0
  4  8  1  0
  4  9  1  0
  5 10  1  0
  5 13  1  0
  6 18  1  0
  7 10  1  0
  8 11  1  0
  9 12  1  0
 13 14  1  0
 14 15  2  0
 14 16  1  0
 15 17  1  0
 16 19  2  0
 17 18  2  0
 18 19  1  0
M  END
$$$$
