
     RDKit          2D

 25 26  0  0  1  0  0  0  0  0999 V2000
    7.4632   -1.8383    0.0000 O   0  0  0  0  0  0  0  0  0  0  0  0
    4.5880   -1.1744    0.0000 O   0  0  0  0  0  0  0  0  0  0  0  0
    5.1331    1.8471    0.0000 O   0  0  0  0  0  0  0  0  0  0  0  0
   11.6574   -3.3179    0.0000 O   0  0  0  0  0  0  0  0  0  0  0  0
   11.6574   -1.8888    0.0000 O   0  0  0  0  0  0  0  0  0  0  0  0
    6.6826   -0.7618    0.0000 C   0  0  0  0  0  0  0  0  0  0  0  0
    6.6826   -1.5869    0.0000 C   0  0  0  0  0  0  0  0  0  0  0  0
    5.8980   -0.5069    0.0000 C   0  0  0  0  0  0  0  0  0  0  0  0
    5.4130   -1.1744    0.0000 C   0  0  0  0  0  0  0  0  0  0  0  0
    5.8980   -1.8418    0.0000 C   0  0  0  0  0  0  0  0  0  0  0  0
    7.4632   -0.5105    0.0000 C   0  0  0  0  0  0  0  0  0  0  0  0
    7.9447   -1.1744    0.0000 C   0  0  0  0  0  0  0  0  0  0  0  0
    5.6429    0.2778    0.0000 C   0  0  0  0  0  0  0  0  0  0  0  0
    8.7698   -1.1744    0.0000 C   0  0  0  0  0  0  0  0  0  0  0  0
    4.8360    0.4493    0.0000 C   0  0  0  0  0  0  0  0  0  0  0  0
    4.5810    1.2339    0.0000 C   0  0  0  0  0  0  0  0  0  0  0  0
    9.1823   -1.8888    0.0000 C   0  0  0  0  0  0  0  0  0  0  0  0
    3.7740    1.4055    0.0000 C   0  0  0  0  0  0  0  0  0  0  0  0
   10.0073   -1.8888    0.0000 C   0  0  0  0  0  0  0  0  0  0  0  0
    3.5190    2.1902    0.0000 C   0  0  0  0  0  0  0  0  0  0  0  0
   10.4198   -2.6034    0.0000 C   0  0  0  0  0  0  0  0  0  0  0  0
    2.7121    2.3617    0.0000 C   0  0  0  0  0  0  0  0  0  0  0  0
    2.4571    3.1464    0.0000 C   0  0  0  0  0  0  0  0  0  0  0  0
   11.2449   -2.6034    0.0000 C   0  0  0  0  0  0  0  0  0  0  0  0
    1.6501    3.3179    0.0000 C   0  0  0  0  0  0  0  0  0  0  0  0
  1  7  1  0
  1 12  1  0
  9  2  1  1
 16  3  1  6
  4 24  1  0
  5 24  2  0
  6  7  1  0
  6  8  1  0
  6 11  1  1
  7 10  1  1
  8  9  1  0
  8 13  1  6
  9 10  1  0
 11 12  1  0
 12 14  2  3
 13 15  2  0
 14 17  1  0
 15 16  1  0
 16 18  1  0
 17 19  1  0
 18 20  1  0
 19 21  1  0
 20 22  1  0
 21 24  1  0
 22 23  1  0
 23 25  1  0
M  END
$$$$
