1105
     RDKit          2D

 19 20  0  0  1  0  0  0  0  0999 V2000
    4.1251   -2.3645    0.0000 Cl  0  0  0  0  0  0  0  0  0  0  0  0
    2.8876    1.6500    0.0000 N   0  0  0  0  0  0  0  0  0  0  0  0
    4.1251    0.9356    0.0000 C   0  0  0  0  0  0  0  0  0  0  0  0
    4.9501    0.9356    0.0000 C   0  0  0  0  0  0  0  0  0  0  0  0
    4.1251    1.7606    0.0000 C   0  0  0  0  0  0  0  0  0  0  0  0
    3.3001    0.9356    0.0000 C   0  0  0  0  0  0  0  0  0  0  0  0
    4.9501    1.7606    0.0000 C   0  0  0  0  0  0  0  0  0  0  0  0
    4.1251    0.1106    0.0000 C   0  0  0  0  0  0  0  0  0  0  0  0
    2.8876    0.2210    0.0000 C   0  0  0  0  0  0  0  0  0  0  0  0
    2.0625    0.2210    0.0000 C   0  0  0  0  0  0  0  0  0  0  0  0
    4.8396   -0.3020    0.0000 C   0  0  0  0  0  0  0  0  0  0  0  0
    3.4106   -0.3020    0.0000 C   0  0  0  0  0  0  0  0  0  0  0  0
    2.0625    1.6500    0.0000 C   0  0  0  0  0  0  0  0  0  0  0  0
    3.3001    2.3645    0.0000 C   0  0  0  0  0  0  0  0  0  0  0  0
    1.6500   -0.4934    0.0000 C   0  0  0  0  0  0  0  0  0  0  0  0
    1.6500    0.9356    0.0000 C   0  0  0  0  0  0  0  0  0  0  0  0
    4.8396   -1.1270    0.0000 C   0  0  0  0  0  0  0  0  0  0  0  0
    3.4106   -1.1270    0.0000 C   0  0  0  0  0  0  0  0  0  0  0  0
    4.1251   -1.5395    0.0000 C   0  0  0  0  0  0  0  0  0  0  0  0
  1 19  1  0
  2  6  1  0
  2 13  1  0
  2 14  1  0
  3  4  1  0
  3  5  1  0
  3  6  1  0
  3  8  1  0
  4  7  1  0
  5  7  1  0
  6  9  1  0
  8 11  2  0
  8 12  1  0
  9 10  1  0
 10 15  1  0
 10 16  1  0
 11 17  1  0
 12 18  2  0
 17 19  2  0
 18 19  1  0
M  END
$$$$
