1291
     RDKit          2D

 17 17  0  0  1  0  0  0  0  0999 V2000
    4.5080   -1.3654    0.0000 O   0  0  0  0  0  0  0  0  0  0  0  0
    7.3659    1.1096    0.0000 O   0  0  0  0  0  0  0  0  0  0  0  0
    7.3659   -1.3654    0.0000 O   0  0  0  0  0  0  0  0  0  0  0  0
    3.0791   -0.5404    0.0000 N   0  0  0  0  0  0  0  0  0  0  0  0
    5.9370   -0.5404    0.0000 N   0  0  0  0  0  0  0  0  0  0  0  0
    2.3645   -0.1279    0.0000 C   0  0  0  0  0  0  0  0  0  0  0  0
    3.7935   -0.1279    0.0000 C   0  0  0  0  0  0  0  0  0  0  0  0
    4.5080   -0.5404    0.0000 C   0  0  0  0  0  0  0  0  0  0  0  0
    1.6500    0.2846    0.0000 C   0  0  0  0  0  0  0  0  0  0  0  0
    1.9520   -0.8423    0.0000 C   0  0  0  0  0  0  0  0  0  0  0  0
    2.7770    0.5866    0.0000 C   0  0  0  0  0  0  0  0  0  0  0  0
    5.2224   -0.1279    0.0000 C   0  0  0  0  0  0  0  0  0  0  0  0
    5.2224    0.6971    0.0000 C   0  0  0  0  0  0  0  0  0  0  0  0
    6.6515   -0.1279    0.0000 C   0  0  0  0  0  0  0  0  0  0  0  0
    5.9370    1.1096    0.0000 C   0  0  0  0  0  0  0  0  0  0  0  0
    6.6515    0.6971    0.0000 C   0  0  0  0  0  0  0  0  0  0  0  0
    7.3659   -0.5404    0.0000 C   0  0  0  0  0  0  0  0  0  0  0  0
  1  8  1  0
  2 16  1  0
  3 17  1  0
  4  6  1  0
  4  7  1  0
  5 12  2  0
  5 14  1  0
  6  9  1  0
  6 10  1  0
  6 11  1  0
  7  8  1  0
  8 12  1  0
 12 13  1  0
 13 15  2  0
 14 16  2  0
 14 17  1  0
 15 16  1  0
M  END
$$$$
