1611
     RDKit          2D

 23 24  0  0  1  0  0  0  0  0999 V2000
    8.1347    3.8460    0.0000 Cl  0  0  0  0  0  0  0  0  0  0  0  0
    2.3645   -3.5989    0.0000 O   0  0  0  0  0  0  0  0  0  0  0  0
    3.0790   -1.5364    0.0000 N   0  0  0  0  0  0  0  0  0  0  0  0
    5.2223    1.3511    0.0000 N   0  0  0  0  0  0  0  0  0  0  0  0
    5.2223    3.8261    0.0000 N   0  0  0  0  0  0  0  0  0  0  0  0
    4.5079    0.1136    0.0000 C   0  0  0  0  0  0  0  0  0  0  0  0
    3.7934   -0.2989    0.0000 C   0  0  0  0  0  0  0  0  0  0  0  0
    4.5079    0.9386    0.0000 C   0  0  0  0  0  0  0  0  0  0  0  0
    3.7934   -1.1239    0.0000 C   0  0  0  0  0  0  0  0  0  0  0  0
    3.0790   -2.3614    0.0000 C   0  0  0  0  0  0  0  0  0  0  0  0
    3.7934    1.3511    0.0000 C   0  0  0  0  0  0  0  0  0  0  0  0
    2.3645   -1.1239    0.0000 C   0  0  0  0  0  0  0  0  0  0  0  0
    5.2223    2.1761    0.0000 C   0  0  0  0  0  0  0  0  0  0  0  0
    2.3645   -2.7739    0.0000 C   0  0  0  0  0  0  0  0  0  0  0  0
    1.6500   -1.5364    0.0000 C   0  0  0  0  0  0  0  0  0  0  0  0
    5.9369    2.5886    0.0000 C   0  0  0  0  0  0  0  0  0  0  0  0
    4.5079    2.5886    0.0000 C   0  0  0  0  0  0  0  0  0  0  0  0
    5.9369    3.4136    0.0000 C   0  0  0  0  0  0  0  0  0  0  0  0
    6.6743    2.1475    0.0000 C   0  0  0  0  0  0  0  0  0  0  0  0
    4.5079    3.4136    0.0000 C   0  0  0  0  0  0  0  0  0  0  0  0
    6.6743    3.8546    0.0000 C   0  0  0  0  0  0  0  0  0  0  0  0
    7.4219    2.5714    0.0000 C   0  0  0  0  0  0  0  0  0  0  0  0
    7.4219    3.4308    0.0000 C   0  0  0  0  0  0  0  0  0  0  0  0
  1 23  1  0
  2 14  1  0
  3  9  1  0
  3 10  1  0
  3 12  1  0
  4  8  1  0
  4 13  1  0
  5 18  2  0
  5 20  1  0
  6  7  1  0
  6  8  1  0
  7  9  1  0
  8 11  1  0
 10 14  1  0
 12 15  1  0
 13 16  2  0
 13 17  1  0
 16 18  1  0
 16 19  1  0
 17 20  2  0
 18 21  1  0
 19 22  2  0
 21 23  2  0
 22 23  1  0
M  END
$$$$
