
     RDKit          2D

 41 46  0  0  0  0  0  0  0  0999 V2000
    1.3066   -0.3186    0.0000 C   0  0  0  0  0  0  0  0  0  0  0  0
    0.5985   -0.7259    0.0000 C   0  0  0  0  0  0  0  0  0  0  0  0
    1.3173    0.5029    0.0000 C   0  0  0  0  0  0  0  0  0  0  0  0
    2.7337   -0.3364    0.0000 C   0  0  0  0  0  0  0  0  0  0  0  0
   -0.1133   -0.3081    0.0000 C   0  0  0  0  0  0  0  0  0  0  0  0
    0.5985   -1.5509    0.0000 C   0  0  0  0  0  0  0  0  0  0  0  0
    2.0361    0.9065    0.0000 C   0  0  0  0  0  0  0  0  0  0  0  0
    0.6126    0.9242    0.0000 C   0  0  0  0  0  0  0  0  0  0  0  0
    1.3350    1.2889    0.0000 C   0  0  0  0  0  0  0  0  0  0  0  0
    2.7442    0.4851    0.0000 C   0  0  0  0  0  0  0  0  0  0  0  0
   -0.8321   -0.7153    0.0000 C   0  0  0  0  0  0  0  0  0  0  0  0
   -0.1062    0.5134    0.0000 C   0  0  0  0  0  0  0  0  0  0  0  0
   -0.1204   -1.9617    0.0000 C   0  0  0  0  0  0  0  0  0  0  0  0
    2.0856    1.8271    0.0000 O   0  0  0  0  0  0  0  0  0  0  0  0
    3.4631    0.8924    0.0000 N   0  0  0  0  0  0  0  0  0  0  0  0
   -0.8357   -1.5474    0.0000 C   0  0  0  0  0  0  0  0  0  0  0  0
   -1.5474   -0.3046    0.0000 C   0  0  0  0  0  0  0  0  0  0  0  0
   -0.7968    0.0779    0.0000 C   0  0  0  0  0  0  0  0  0  0  0  0
    1.3739    2.2521    0.0000 C   0  0  0  0  0  0  0  0  0  0  0  0
    4.1713    0.4674    0.0000 C   0  0  0  0  0  0  0  0  0  0  0  0
    3.4702    1.7139    0.0000 C   0  0  0  0  0  0  0  0  0  0  0  0
    3.4667   -0.0885    0.0000 C   0  0  0  0  0  0  0  0  0  0  0  0
   -1.5474   -1.9582    0.0000 C   0  0  0  0  0  0  0  0  0  0  0  0
   -2.2591   -0.7153    0.0000 C   0  0  0  0  0  0  0  0  0  0  0  0
    0.6516    1.8449    0.0000 C   0  0  0  0  0  0  0  0  0  0  0  0
    1.3846    3.0772    0.0000 O   0  0  0  0  0  0  0  0  0  0  0  0
    4.8901    0.8711    0.0000 C   0  0  0  0  0  0  0  0  0  0  0  0
    4.1890    2.1210    0.0000 C   0  0  0  0  0  0  0  0  0  0  0  0
   -2.2591   -1.5474    0.0000 C   0  0  0  0  0  0  0  0  0  0  0  0
   -3.0630   -0.1806    0.0000 N   0  0  0  0  0  0  0  0  0  0  0  0
    4.9007    1.6961    0.0000 C   0  0  0  0  0  0  0  0  0  0  0  0
   -2.9780   -1.9582    0.0000 O   0  0  0  0  0  0  0  0  0  0  0  0
   -3.0594    0.6409    0.0000 C   0  0  0  0  0  0  0  0  0  0  0  0
   -3.7747   -0.5949    0.0000 C   0  0  0  0  0  0  0  0  0  0  0  0
   -2.3017    0.4108    0.0000 C   0  0  0  0  0  0  0  0  0  0  0  0
   -2.9780   -2.7832    0.0000 C   0  0  0  0  0  0  0  0  0  0  0  0
   -3.7747    1.0552    0.0000 C   0  0  0  0  0  0  0  0  0  0  0  0
   -4.4900   -0.1841    0.0000 C   0  0  0  0  0  0  0  0  0  0  0  0
   -3.6933   -3.1975    0.0000 C   0  0  0  0  0  0  0  0  0  0  0  0
   -2.2591   -3.1975    0.0000 O   0  0  0  0  0  0  0  0  0  0  0  0
   -4.4865    0.6409    0.0000 C   0  0  0  0  0  0  0  0  0  0  0  0
  1  2  1  0
  1  3  1  0
  1  4  1  1
  2  5  1  0
  2  6  1  6
  3  7  1  0
  3  8  1  0
  3  9  1  1
  4 10  1  0
  5 11  1  0
  5 12  1  1
  6 13  1  0
  7 14  1  1
 10 15  1  1
 11 16  1  0
 11 17  1  0
 11 18  1  1
 14 19  1  0
 15 20  1  0
 15 21  1  0
 15 22  1  0
 16 23  1  1
 17 24  1  0
 19 25  1  0
 19 26  2  0
 20 27  1  0
 21 28  1  0
 23 29  1  0
 24 30  1  1
 27 31  1  0
 29 32  1  6
 30 33  1  0
 30 34  1  0
 30 35  1  0
 32 36  1  0
 33 37  1  0
 34 38  1  0
 36 39  1  0
 36 40  2  0
 37 41  1  0
  7 10  1  0
  8 12  1  0
 13 16  1  0
 24 29  1  0
 28 31  1  0
 38 41  1  0
M  CHG  2  15   1  30   1
M  END
$$$$
