1245
     RDKit          2D

 18 17  0  0  0  0  0  0  0  0999 V2000
    2.3643   -0.2063    0.0000 N   0  0  0  0  0  0  0  0  0  0  0  0
   10.2230    0.2063    0.0000 N   0  0  0  0  0  0  0  0  0  0  0  0
    3.0788    0.2063    0.0000 C   0  0  0  0  0  0  0  0  0  0  0  0
    9.5085   -0.2063    0.0000 C   0  0  0  0  0  0  0  0  0  0  0  0
    3.7932   -0.2063    0.0000 C   0  0  0  0  0  0  0  0  0  0  0  0
    8.7941    0.2063    0.0000 C   0  0  0  0  0  0  0  0  0  0  0  0
    4.5076    0.2063    0.0000 C   0  0  0  0  0  0  0  0  0  0  0  0
    8.0797   -0.2063    0.0000 C   0  0  0  0  0  0  0  0  0  0  0  0
    5.2219   -0.2063    0.0000 C   0  0  0  0  0  0  0  0  0  0  0  0
    7.3652    0.2063    0.0000 C   0  0  0  0  0  0  0  0  0  0  0  0
    5.9365    0.2063    0.0000 C   0  0  0  0  0  0  0  0  0  0  0  0
    6.6509   -0.2063    0.0000 C   0  0  0  0  0  0  0  0  0  0  0  0
    2.7767   -0.9206    0.0000 C   0  0  0  0  0  0  0  0  0  0  0  0
    1.9518    0.5082    0.0000 C   0  0  0  0  0  0  0  0  0  0  0  0
    1.6498   -0.6187    0.0000 C   0  0  0  0  0  0  0  0  0  0  0  0
    9.8105    0.9206    0.0000 C   0  0  0  0  0  0  0  0  0  0  0  0
   10.6354   -0.5082    0.0000 C   0  0  0  0  0  0  0  0  0  0  0  0
   10.9373    0.6187    0.0000 C   0  0  0  0  0  0  0  0  0  0  0  0
  1  3  1  0
  1 13  1  0
  1 14  1  0
  1 15  1  0
  2  4  1  0
  2 16  1  0
  2 17  1  0
  2 18  1  0
  3  5  1  0
  4  6  1  0
  5  7  1  0
  6  8  1  0
  7  9  1  0
  8 10  1  0
  9 11  1  0
 10 12  1  0
 11 12  1  0
M  CHG  2   1   1   2   1
M  END
$$$$
