
     RDKit          2D

 23 25  0  0  0  0  0  0  0  0999 V2000
    9.7382   -9.8080    0.0000 C   0  0  0  0  0  0  0  0  0  0  0  0
   10.5632   -9.8080    0.0000 N   0  0  0  0  0  0  0  0  0  0  0  0
    9.4833   -9.0233    0.0000 N   0  0  0  0  0  0  0  0  0  0  0  0
    2.8276  -10.0852    0.0000 N   0  0  0  0  0  0  0  0  0  0  0  0
   10.8182   -9.0233    0.0000 C   0  0  0  0  0  0  0  0  0  0  0  0
    5.9661   -9.0655    0.0000 C   0  0  0  0  0  0  0  0  0  0  0  0
   10.1507   -8.5384    0.0000 C   0  0  0  0  0  0  0  0  0  0  0  0
    8.6987   -8.7684    0.0000 N   0  0  0  0  0  0  0  0  0  0  0  0
    6.6335   -9.5504    0.0000 O   0  0  0  0  0  0  0  0  0  0  0  0
    6.2210   -8.2808    0.0000 C   0  0  0  0  0  0  0  0  0  0  0  0
    7.3010   -9.0655    0.0000 C   0  0  0  0  0  0  0  0  0  0  0  0
    8.0856   -9.3204    0.0000 C   0  0  0  0  0  0  0  0  0  0  0  0
    3.6122   -9.8303    0.0000 C   0  0  0  0  0  0  0  0  0  0  0  0
    7.0460   -8.2808    0.0000 C   0  0  0  0  0  0  0  0  0  0  0  0
    2.2145   -9.5332    0.0000 O   0  0  0  0  0  0  0  0  0  0  0  0
    5.1814   -9.3204    0.0000 C   0  0  0  0  0  0  0  0  0  0  0  0
    2.6561  -10.8923    0.0000 O   0  0  0  0  0  0  0  0  0  0  0  0
    9.2533  -10.4754    0.0000 O   0  0  0  0  0  0  0  0  0  0  0  0
   11.6028   -8.7684    0.0000 O   0  0  0  0  0  0  0  0  0  0  0  0
    4.2253  -10.3824    0.0000 C   0  0  0  0  0  0  0  0  0  0  0  0
    3.7837   -9.0233    0.0000 C   0  0  0  0  0  0  0  0  0  0  0  0
    5.0099  -10.1274    0.0000 C   0  0  0  0  0  0  0  0  0  0  0  0
    4.5683   -8.7684    0.0000 C   0  0  0  0  0  0  0  0  0  0  0  0
  2  1  1  0
  3  1  1  0
 18  1  2  0
  5  2  1  0
  7  3  1  0
  8  3  1  0
 13  4  1  0
 15  4  1  0
 17  4  2  0
 19  5  2  0
  7  5  1  0
  9  6  1  0
 16  6  1  0
 10  6  2  0
 12  8  2  3
 11  9  1  0
 14 10  1  0
 12 11  1  0
 14 11  2  0
 21 13  2  0
 20 13  1  0
 22 16  1  0
 23 16  2  0
 22 20  2  0
 23 21  1  0
M  CHG  2   4   1  15  -1
M  END
$$$$
