1089
     RDKit          2D

 42 47  0  0  1  0  0  0  0  0999 V2000
    7.6757   -1.7074    0.0000 O   0  0  0  0  0  0  0  0  0  0  0  0
    8.8303   -0.4251    0.0000 O   0  0  0  0  0  0  0  0  0  0  0  0
    6.2364   -2.1232    0.0000 O   0  0  0  0  0  0  0  0  0  0  0  0
    5.1858   -1.1549    0.0000 O   0  0  0  0  0  0  0  0  0  0  0  0
    9.1220    0.9737    0.0000 O   0  0  0  0  0  0  0  0  0  0  0  0
   11.5111   -1.7140    0.0000 O   0  0  0  0  0  0  0  0  0  0  0  0
   12.0944    1.0837    0.0000 O   0  0  0  0  0  0  0  0  0  0  0  0
   12.6103   -0.4836    0.0000 O   0  0  0  0  0  0  0  0  0  0  0  0
    5.7462    1.7459    0.0000 N   0  0  0  0  0  0  0  0  0  0  0  0
    3.7226    0.8240    0.0000 N   0  0  0  0  0  0  0  0  0  0  0  0
    6.2863    0.1264    0.0000 C   0  0  0  0  0  0  0  0  0  0  0  0
    6.8613    0.7650    0.0000 C   0  0  0  0  0  0  0  0  0  0  0  0
    5.4471    0.3115    0.0000 C   0  0  0  0  0  0  0  0  0  0  0  0
    6.5497   -0.7290    0.0000 C   0  0  0  0  0  0  0  0  0  0  0  0
    5.1942    1.1328    0.0000 C   0  0  0  0  0  0  0  0  0  0  0  0
    6.5894    1.5801    0.0000 C   0  0  0  0  0  0  0  0  0  0  0  0
    7.7395    0.5924    0.0000 C   0  0  0  0  0  0  0  0  0  0  0  0
    7.4237   -0.9219    0.0000 C   0  0  0  0  0  0  0  0  0  0  0  0
    8.0227   -0.2567    0.0000 C   0  0  0  0  0  0  0  0  0  0  0  0
    4.3873    1.3043    0.0000 C   0  0  0  0  0  0  0  0  0  0  0  0
    5.4913    2.5304    0.0000 C   0  0  0  0  0  0  0  0  0  0  0  0
    4.6843    2.7019    0.0000 C   0  0  0  0  0  0  0  0  0  0  0  0
    4.1324    2.0889    0.0000 C   0  0  0  0  0  0  0  0  0  0  0  0
    5.9906   -1.3357    0.0000 C   0  0  0  0  0  0  0  0  0  0  0  0
    3.3123    2.0868    0.0000 C   0  0  0  0  0  0  0  0  0  0  0  0
    3.0595    1.3066    0.0000 C   0  0  0  0  0  0  0  0  0  0  0  0
    8.4819   -1.8821    0.0000 C   0  0  0  0  0  0  0  0  0  0  0  0
    2.7500    2.7298    0.0000 C   0  0  0  0  0  0  0  0  0  0  0  0
    9.3799    0.1901    0.0000 C   0  0  0  0  0  0  0  0  0  0  0  0
    2.2269    1.1154    0.0000 C   0  0  0  0  0  0  0  0  0  0  0  0
    1.9132    2.5580    0.0000 C   0  0  0  0  0  0  0  0  0  0  0  0
    5.6774   -2.7298    0.0000 C   0  0  0  0  0  0  0  0  0  0  0  0
    1.6499    1.7453    0.0000 C   0  0  0  0  0  0  0  0  0  0  0  0
   10.1876    0.0217    0.0000 C   0  0  0  0  0  0  0  0  0  0  0  0
   10.7372    0.6369    0.0000 C   0  0  0  0  0  0  0  0  0  0  0  0
   10.4455   -0.7619    0.0000 C   0  0  0  0  0  0  0  0  0  0  0  0
   11.2531   -0.9303    0.0000 C   0  0  0  0  0  0  0  0  0  0  0  0
   11.5448    0.4684    0.0000 C   0  0  0  0  0  0  0  0  0  0  0  0
   11.8028   -0.3151    0.0000 C   0  0  0  0  0  0  0  0  0  0  0  0
   10.9614   -2.3291    0.0000 C   0  0  0  0  0  0  0  0  0  0  0  0
   11.8365    1.8672    0.0000 C   0  0  0  0  0  0  0  0  0  0  0  0
   13.1600    0.1317    0.0000 C   0  0  0  0  0  0  0  0  0  0  0  0
 18  1  1  6
  1 27  1  0
 19  2  1  1
  2 29  1  0
  3 24  1  0
  3 32  1  0
  4 24  2  0
  5 29  2  0
  6 37  1  0
  6 40  1  0
  7 38  1  0
  7 41  1  0
  8 39  1  0
  8 42  1  0
  9 15  1  0
  9 16  1  0
  9 21  1  0
 10 20  1  0
 10 26  1  0
 11 12  1  0
 11 13  1  1
 11 14  1  0
 12 16  1  1
 12 17  1  0
 15 13  1  6
 14 18  1  0
 14 24  1  1
 15 20  1  0
 17 19  1  0
 18 19  1  0
 20 23  2  0
 21 22  1  0
 22 23  1  0
 23 25  1  0
 25 26  2  0
 25 28  1  0
 26 30  1  0
 28 31  2  0
 29 34  1  0
 30 33  2  0
 31 33  1  0
 34 35  2  0
 34 36  1  0
 35 38  1  0
 36 37  2  0
 37 39  1  0
 38 39  2  0
M  END
$$$$
