1000
     RDKit          2D

 23 25  0  0  1  0  0  0  0  0999 V2000
    6.2365    0.4594    0.0000 S   0  0  0  0  0  0  0  0  0  0  0  0
    4.0378   -1.2085    0.0000 O   0  0  0  0  0  0  0  0  0  0  0  0
    5.9394   -2.2733    0.0000 O   0  0  0  0  0  0  0  0  0  0  0  0
    3.3108   -0.2415    0.0000 O   0  0  0  0  0  0  0  0  0  0  0  0
    7.2984   -1.8317    0.0000 O   0  0  0  0  0  0  0  0  0  0  0  0
    5.4519   -0.6206    0.0000 N   0  0  0  0  0  0  0  0  0  0  0  0
    4.0378    0.7924    0.0000 N   0  0  0  0  0  0  0  0  0  0  0  0
    2.1838    0.4902    0.0000 N   0  0  0  0  0  0  0  0  0  0  0  0
    5.4519    0.2044    0.0000 C   0  0  0  0  0  0  0  0  0  0  0  0
    4.6200    0.2078    0.0000 C   0  0  0  0  0  0  0  0  0  0  0  0
    6.2365   -0.8755    0.0000 C   0  0  0  0  0  0  0  0  0  0  0  0
    6.7214   -0.2081    0.0000 C   0  0  0  0  0  0  0  0  0  0  0  0
    4.6200   -0.6240    0.0000 C   0  0  0  0  0  0  0  0  0  0  0  0
    2.6583    1.1651    0.0000 C   0  0  0  0  0  0  0  0  0  0  0  0
    7.3888   -0.6930    0.0000 C   0  0  0  0  0  0  0  0  0  0  0  0
    7.3888    0.2769    0.0000 C   0  0  0  0  0  0  0  0  0  0  0  0
    3.2429    1.7472    0.0000 C   0  0  0  0  0  0  0  0  0  0  0  0
    1.8619    1.3802    0.0000 C   0  0  0  0  0  0  0  0  0  0  0  0
    3.2405    0.5805    0.0000 C   0  0  0  0  0  0  0  0  0  0  0  0
    6.4914   -1.6602    0.0000 C   0  0  0  0  0  0  0  0  0  0  0  0
    3.0311    2.5446    0.0000 C   0  0  0  0  0  0  0  0  0  0  0  0
    1.6500    2.1776    0.0000 C   0  0  0  0  0  0  0  0  0  0  0  0
    2.2346    2.7597    0.0000 C   0  0  0  0  0  0  0  0  0  0  0  0
  9  1  1  1
  1 12  1  0
  2 13  2  0
  3 20  1  0
  4 19  2  0
  5 20  2  0
  6  9  1  0
  6 11  1  0
  6 13  1  0
 10  7  1  1
  7 19  1  0
  8 14  1  0
  9 10  1  0
 10 13  1  0
 11 12  1  0
 11 20  1  6
 12 15  1  0
 12 16  1  0
 14 17  1  0
 14 18  1  0
 14 19  1  0
 17 21  1  0
 18 22  1  0
 21 23  1  0
 22 23  1  0
M  END
$$$$
