1053
     RDKit          2D

 23 25  0  0  1  0  0  0  0  0999 V2000
    7.6201    1.0703    0.0000 S   0  0  0  0  0  0  0  0  0  0  0  0
    5.4215   -0.5975    0.0000 O   0  0  0  0  0  0  0  0  0  0  0  0
    7.3230   -1.6623    0.0000 O   0  0  0  0  0  0  0  0  0  0  0  0
    8.6819   -1.2207    0.0000 O   0  0  0  0  0  0  0  0  0  0  0  0
    4.4089    0.3950    0.0000 O   0  0  0  0  0  0  0  0  0  0  0  0
    6.8354   -0.0096    0.0000 N   0  0  0  0  0  0  0  0  0  0  0  0
    5.4215    1.4034    0.0000 N   0  0  0  0  0  0  0  0  0  0  0  0
    6.8354    0.8154    0.0000 C   0  0  0  0  0  0  0  0  0  0  0  0
    8.1049    0.4029    0.0000 C   0  0  0  0  0  0  0  0  0  0  0  0
    7.6201   -0.2646    0.0000 C   0  0  0  0  0  0  0  0  0  0  0  0
    6.0036    0.8188    0.0000 C   0  0  0  0  0  0  0  0  0  0  0  0
    6.0036   -0.0130    0.0000 C   0  0  0  0  0  0  0  0  0  0  0  0
    8.7724   -0.0820    0.0000 C   0  0  0  0  0  0  0  0  0  0  0  0
    8.7724    0.8878    0.0000 C   0  0  0  0  0  0  0  0  0  0  0  0
    7.8750   -1.0491    0.0000 C   0  0  0  0  0  0  0  0  0  0  0  0
    4.6241    1.1915    0.0000 C   0  0  0  0  0  0  0  0  0  0  0  0
    4.0420    1.7760    0.0000 C   0  0  0  0  0  0  0  0  0  0  0  0
    3.2446    1.5642    0.0000 C   0  0  0  0  0  0  0  0  0  0  0  0
    3.0295    0.7677    0.0000 C   0  0  0  0  0  0  0  0  0  0  0  0
    2.6625    2.1487    0.0000 C   0  0  0  0  0  0  0  0  0  0  0  0
    2.2322    0.5558    0.0000 C   0  0  0  0  0  0  0  0  0  0  0  0
    1.8651    1.9368    0.0000 C   0  0  0  0  0  0  0  0  0  0  0  0
    1.6500    1.1404    0.0000 C   0  0  0  0  0  0  0  0  0  0  0  0
  8  1  1  1
  1  9  1  0
  2 12  2  0
  3 15  1  0
  4 15  2  0
  5 16  2  0
  6  8  1  0
  6 10  1  0
  6 12  1  0
 11  7  1  1
  7 16  1  0
  8 11  1  0
  9 10  1  0
  9 13  1  0
  9 14  1  0
 10 15  1  6
 11 12  1  0
 16 17  1  0
 17 18  1  0
 18 19  2  0
 18 20  1  0
 19 21  1  0
 20 22  2  0
 21 23  2  0
 22 23  1  0
M  END
$$$$
