1153
     RDKit          2D

 27 30  0  0  1  0  0  0  0  0999 V2000
    6.2815   -0.5684    0.0000 Cl  0  0  0  0  0  0  0  0  0  0  0  0
    2.3645   -3.3928    0.0000 Cl  0  0  0  0  0  0  0  0  0  0  0  0
    8.4087    1.3402    0.0000 Cl  0  0  0  0  0  0  0  0  0  0  0  0
    3.8597   -2.4067    0.0000 S   0  0  0  0  0  0  0  0  0  0  0  0
    4.9232   -0.1246    0.0000 O   0  0  0  0  0  0  0  0  0  0  0  0
    4.8848    2.0579    0.0000 N   0  0  0  0  0  0  0  0  0  0  0  0
    5.6713    3.1366    0.0000 N   0  0  0  0  0  0  0  0  0  0  0  0
    5.1795    0.6597    0.0000 C   0  0  0  0  0  0  0  0  0  0  0  0
    4.6286    1.2737    0.0000 C   0  0  0  0  0  0  0  0  0  0  0  0
    5.9868    0.8298    0.0000 C   0  0  0  0  0  0  0  0  0  0  0  0
    4.1159   -0.2947    0.0000 C   0  0  0  0  0  0  0  0  0  0  0  0
    3.8597   -1.0789    0.0000 C   0  0  0  0  0  0  0  0  0  0  0  0
    3.0791   -1.3303    0.0000 C   0  0  0  0  0  0  0  0  0  0  0  0
    6.5379    0.2157    0.0000 C   0  0  0  0  0  0  0  0  0  0  0  0
    6.2432    1.6140    0.0000 C   0  0  0  0  0  0  0  0  0  0  0  0
    3.0791   -2.1553    0.0000 C   0  0  0  0  0  0  0  0  0  0  0  0
    4.3412   -1.7428    0.0000 C   0  0  0  0  0  0  0  0  0  0  0  0
    4.4011    2.7262    0.0000 C   0  0  0  0  0  0  0  0  0  0  0  0
    5.6699    2.3115    0.0000 C   0  0  0  0  0  0  0  0  0  0  0  0
    2.3645   -0.9178    0.0000 C   0  0  0  0  0  0  0  0  0  0  0  0
    7.3451    0.3859    0.0000 C   0  0  0  0  0  0  0  0  0  0  0  0
    7.0504    1.7841    0.0000 C   0  0  0  0  0  0  0  0  0  0  0  0
    2.3645   -2.5678    0.0000 C   0  0  0  0  0  0  0  0  0  0  0  0
    7.6014    1.1700    0.0000 C   0  0  0  0  0  0  0  0  0  0  0  0
    4.8872    3.3928    0.0000 C   0  0  0  0  0  0  0  0  0  0  0  0
    1.6500   -1.3303    0.0000 C   0  0  0  0  0  0  0  0  0  0  0  0
    1.6500   -2.1553    0.0000 C   0  0  0  0  0  0  0  0  0  0  0  0
  1 14  1  0
  2 23  1  0
  3 24  1  0
  4 16  1  0
  4 17  1  0
  5  8  1  0
  5 11  1  0
  6  9  1  0
  6 18  1  0
  6 19  1  0
  7 19  2  0
  7 25  1  0
  8  9  1  0
  8 10  1  0
 10 14  2  0
 10 15  1  0
 11 12  1  0
 12 13  1  0
 12 17  2  0
 13 16  2  0
 13 20  1  0
 14 21  1  0
 15 22  2  0
 16 23  1  0
 18 25  2  0
 20 26  2  0
 21 24  2  0
 22 24  1  0
 23 27  2  0
 26 27  1  0
M  END
$$$$
