
     RDKit          2D

 31 35  0  0  1  0  0  0  0  0999 V2000
   13.5340   -5.1807    0.0000 C   0  0  0  0  0  0  0  0  0  0  0  0
   12.7464   -5.4288    0.0000 C   0  0  0  0  0  0  0  0  0  0  0  0
   14.0121   -5.8531    0.0000 C   0  0  0  0  0  0  0  0  0  0  0  0
   14.0228   -4.5190    0.0000 O   0  0  0  0  0  0  0  0  0  0  0  0
   13.5626   -4.0554    0.0000 C   0  0  0  0  0  0  0  0  0  0  0  0
   12.7392   -6.2485    0.0000 C   0  0  0  0  0  0  0  0  0  0  0  0
   12.0418   -5.0117    0.0000 C   0  0  0  0  0  0  0  0  0  0  0  0
   12.7283   -4.4364    0.0000 C   0  0  0  0  0  0  0  0  0  0  0  0
   13.5194   -6.5109    0.0000 C   0  0  0  0  0  0  0  0  0  0  0  0
   14.7923   -5.6049    0.0000 O   0  0  0  0  0  0  0  0  0  0  0  0
   14.8031   -4.7851    0.0000 C   0  0  0  0  0  0  0  0  0  0  0  0
   12.7464   -3.5520    0.0000 C   0  0  0  0  0  0  0  0  0  0  0  0
   12.0274   -6.6584    0.0000 C   0  0  0  0  0  0  0  0  0  0  0  0
   11.3262   -5.4181    0.0000 C   0  0  0  0  0  0  0  0  0  0  0  0
   15.5293   -4.3537    0.0000 C   0  0  0  0  0  0  0  0  0  0  0  0
   12.7318   -2.5956    0.0000 O   0  0  0  0  0  0  0  0  0  0  0  0
   11.3190   -6.2413    0.0000 C   0  0  0  0  0  0  0  0  0  0  0  0
   12.0274   -7.4853    0.0000 C   0  0  0  0  0  0  0  0  0  0  0  0
   10.4669   -4.7780    0.0000 O   0  0  0  0  0  0  0  0  0  0  0  0
   16.1946   -4.7312    0.0000 C   0  0  0  0  0  0  0  0  0  0  0  0
   10.5963   -6.6477    0.0000 C   0  0  0  0  0  0  0  0  0  0  0  0
   11.3118   -7.8953    0.0000 C   0  0  0  0  0  0  0  0  0  0  0  0
   16.9063   -4.3070    0.0000 C   0  0  0  0  0  0  0  0  0  0  0  0
   10.5928   -7.4780    0.0000 C   0  0  0  0  0  0  0  0  0  0  0  0
    9.8843   -6.2378    0.0000 C   0  0  0  0  0  0  0  0  0  0  0  0
   10.5891   -5.6517    0.0000 C   0  0  0  0  0  0  0  0  0  0  0  0
    9.8843   -7.8917    0.0000 C   0  0  0  0  0  0  0  0  0  0  0  0
    9.1688   -6.6477    0.0000 C   0  0  0  0  0  0  0  0  0  0  0  0
    9.1688   -7.4780    0.0000 C   0  0  0  0  0  0  0  0  0  0  0  0
    8.4498   -7.8917    0.0000 O   0  0  0  0  0  0  0  0  0  0  0  0
   14.2771   -3.6428    0.0000 O   0  0  0  0  0  0  0  0  0  0  0  0
  1  2  1  0
  1  3  1  0
  1  4  1  0
  1  5  1  1
  2  6  1  0
  2  7  1  0
  2  8  1  1
  3  9  1  6
  3 10  1  0
  4 11  1  0
  5 12  1  0
  6 13  1  0
  7 14  1  0
 11 15  1  0
 12 16  1  0
 13 17  1  0
 13 18  1  6
 14 19  1  1
 15 20  1  0
 17 21  1  0
 18 22  1  0
 20 23  1  0
 21 24  1  0
 21 25  1  0
 21 26  1  1
 24 27  2  0
 25 28  2  0
 27 29  1  0
 29 30  2  0
  6  9  1  1
 10 11  1  0
 17 14  1  1
 22 24  1  0
 28 29  1  0
  5 31  2  0
M  END
$$$$
