
     RDKit          2D

 89 95  0  0  0  0  0  0  0  0999 V2000
    0.8659   -1.4342    0.0000 N   0  0  0  0  0  0  0  0  0  0  0  0
    4.0760   -4.0167    0.0000 N   0  0  0  0  0  0  0  0  0  0  0  0
    1.2357   -0.6982    0.0000 C   0  0  0  0  0  0  0  0  0  0  0  0
    1.2388   -2.1659    0.0000 C   0  0  0  0  0  0  0  0  0  0  0  0
    4.0806   -3.1867    0.0000 C   0  0  0  0  0  0  0  0  0  0  0  0
    1.1049   -5.0253    0.0000 C   0  0  0  0  0  0  0  0  0  0  0  0
    0.7917   -2.8564    0.0000 C   0  0  0  0  0  0  0  0  0  0  0  0
    1.9520   -0.2891    0.0000 C   0  0  0  0  0  0  0  0  0  0  0  0
    4.7961   -2.7818    0.0000 C   0  0  0  0  0  0  0  0  0  0  0  0
    1.1716   -3.5976    0.0000 N   0  0  0  0  0  0  0  0  0  0  0  0
    2.0099   -4.7885    0.0000 N   0  0  0  0  0  0  0  0  0  0  0  0
    4.8008   -1.9520    0.0000 N   0  0  0  0  0  0  0  0  0  0  0  0
    0.7245   -4.2882    0.0000 C   0  0  0  0  0  0  0  0  0  0  0  0
    2.6645   -0.7017    0.0000 N   0  0  0  0  0  0  0  0  0  0  0  0
   -2.6965   -8.2933    0.0000 S   0  0  0  0  0  0  0  0  0  0  0  0
    2.6254   -4.2375    0.0000 C   0  0  0  0  0  0  0  0  0  0  0  0
    3.4080   -4.4964    0.0000 C   0  0  0  0  0  0  0  0  0  0  0  0
    5.5211   -1.5435    0.0000 C   0  0  0  0  0  0  0  0  0  0  0  0
    9.9037    1.7199    0.0000 N   0  0  0  0  0  0  0  0  0  0  0  0
    0.7711   -5.7753    0.0000 C   0  0  0  0  0  0  0  0  0  0  0  0
   10.5689    0.5556    0.0000 C   0  0  0  0  0  0  0  0  0  0  0  0
    0.0410   -1.3965    0.0000 C   0  0  0  0  0  0  0  0  0  0  0  0
   11.1219    1.1666    0.0000 C   0  0  0  0  0  0  0  0  0  0  0  0
    9.8160    0.8984    0.0000 C   0  0  0  0  0  0  0  0  0  0  0  0
   10.7135    1.8869    0.0000 O   0  0  0  0  0  0  0  0  0  0  0  0
    0.6504   -0.1152    0.0000 C   0  0  0  0  0  0  0  0  0  0  0  0
    5.5204   -0.7213    0.0000 C   0  0  0  0  0  0  0  0  0  0  0  0
   -1.5434   -7.4535    0.0000 C   0  0  0  0  0  0  0  0  0  0  0  0
    6.9480   -0.7330    0.0000 C   0  0  0  0  0  0  0  0  0  0  0  0
    3.3848   -0.2933    0.0000 C   0  0  0  0  0  0  0  0  0  0  0  0
   -0.0868   -0.4958    0.0000 C   0  0  0  0  0  0  0  0  0  0  0  0
    6.2406   -0.3128    0.0000 N   0  0  0  0  0  0  0  0  0  0  0  0
   -0.0290   -2.8195    0.0000 C   0  0  0  0  0  0  0  0  0  0  0  0
   -2.3654   -7.5344    0.0000 O   0  0  0  0  0  0  0  0  0  0  0  0
   -0.4069   -2.0913    0.0000 C   0  0  0  0  0  0  0  0  0  0  0  0
   -0.0481   -5.8650    0.0000 C   0  0  0  0  0  0  0  0  0  0  0  0
   -0.3910   -6.6179    0.0000 C   0  0  0  0  0  0  0  0  0  0  0  0
    4.8124   -0.3051    0.0000 C   0  0  0  0  0  0  0  0  0  0  0  0
   -1.2046   -6.7001    0.0000 C   0  0  0  0  0  0  0  0  0  0  0  0
    4.7389   -4.5061    0.0000 C   0  0  0  0  0  0  0  0  0  0  0  0
    3.6590   -5.2811    0.0000 C   0  0  0  0  0  0  0  0  0  0  0  0
    4.0922   -0.7135    0.0000 C   0  0  0  0  0  0  0  0  0  0  0  0
   -1.2358   -2.0530    0.0000 C   0  0  0  0  0  0  0  0  0  0  0  0
    3.3686   -2.7700    0.0000 O   0  0  0  0  0  0  0  0  0  0  0  0
    2.0679   -2.2043    0.0000 O   0  0  0  0  0  0  0  0  0  0  0  0
   -1.9429   -8.6321    0.0000 O   0  0  0  0  0  0  0  0  0  0  0  0
   -3.4554   -7.9622    0.0000 O   0  0  0  0  0  0  0  0  0  0  0  0
   11.9393    1.0795    0.0000 C   0  0  0  0  0  0  0  0  0  0  0  0
    7.6682   -0.3246    0.0000 C   0  0  0  0  0  0  0  0  0  0  0  0
    1.9559    0.5368    0.0000 O   0  0  0  0  0  0  0  0  0  0  0  0
    9.0957    0.4900    0.0000 C   0  0  0  0  0  0  0  0  0  0  0  0
   -1.0554   -8.1227    0.0000 C   0  0  0  0  0  0  0  0  0  0  0  0
   -0.0963   -4.2511    0.0000 O   0  0  0  0  0  0  0  0  0  0  0  0
    2.4585   -3.4277    0.0000 O   0  0  0  0  0  0  0  0  0  0  0  0
    6.2283   -1.9637    0.0000 O   0  0  0  0  0  0  0  0  0  0  0  0
    6.9480   -1.5595    0.0000 O   0  0  0  0  0  0  0  0  0  0  0  0
    5.5082   -3.1986    0.0000 C   0  0  0  0  0  0  0  0  0  0  0  0
    4.4800   -5.2887    0.0000 C   0  0  0  0  0  0  0  0  0  0  0  0
    0.1023   -7.2795    0.0000 C   0  0  0  0  0  0  0  0  0  0  0  0
   -3.0381   -9.0379    0.0000 O   0  0  0  0  0  0  0  0  0  0  0  0
   -1.6747   -2.7447    0.0000 O   0  0  0  0  0  0  0  0  0  0  0  0
   -0.2322   -8.0336    0.0000 C   0  0  0  0  0  0  0  0  0  0  0  0
    7.6674    0.4978    0.0000 C   0  0  0  0  0  0  0  0  0  0  0  0
    8.3761   -0.7408    0.0000 C   0  0  0  0  0  0  0  0  0  0  0  0
    9.0963   -0.3323    0.0000 C   0  0  0  0  0  0  0  0  0  0  0  0
    8.3837    0.9067    0.0000 C   0  0  0  0  0  0  0  0  0  0  0  0
   12.4238    1.7391    0.0000 C   0  0  0  0  0  0  0  0  0  0  0  0
   12.2701    0.3206    0.0000 C   0  0  0  0  0  0  0  0  0  0  0  0
    1.2547   -6.4438    0.0000 O   0  0  0  0  0  0  0  0  0  0  0  0
   -1.6129   -1.3206    0.0000 N   0  0  0  0  0  0  0  0  0  0  0  0
    0.7752    0.7005    0.0000 O   0  0  0  0  0  0  0  0  0  0  0  0
    3.3842    0.5291    0.0000 O   0  0  0  0  0  0  0  0  0  0  0  0
   -0.5318   -5.1965    0.0000 O   0  0  0  0  0  0  0  0  0  0  0  0
   -0.4734   -3.5188    0.0000 O   0  0  0  0  0  0  0  0  0  0  0  0
   13.5803    0.8917    0.0000 C   0  0  0  0  0  0  0  0  0  0  0  0
    4.0882   -1.5393    0.0000 O   0  0  0  0  0  0  0  0  0  0  0  0
   13.2453    1.6514    0.0000 C   0  0  0  0  0  0  0  0  0  0  0  0
   13.0903    0.2246    0.0000 C   0  0  0  0  0  0  0  0  0  0  0  0
   -1.3936   -8.8721    0.0000 O   0  0  0  0  0  0  0  0  0  0  0  0
    4.9590   -5.9607    0.0000 O   0  0  0  0  0  0  0  0  0  0  0  0
    6.2244   -2.7896    0.0000 O   0  0  0  0  0  0  0  0  0  0  0  0
   -0.8175   -0.1184    0.0000 C   0  0  0  0  0  0  0  0  0  0  0  0
   14.4017    0.8041    0.0000 O   0  0  0  0  0  0  0  0  0  0  0  0
    5.5048   -4.0204    0.0000 C   0  0  0  0  0  0  0  0  0  0  0  0
   14.7332    0.0492    0.0000 C   0  0  0  0  0  0  0  0  0  0  0  0
   14.2480   -0.6146    0.0000 C   0  0  0  0  0  0  0  0  0  0  0  0
   14.0929   -2.0412    0.0000 C   0  0  0  0  0  0  0  0  0  0  0  0
   14.5787   -1.3735    0.0000 C   0  0  0  0  0  0  0  0  0  0  0  0
   14.4249   -2.7919    0.0000 C   0  0  0  0  0  0  0  0  0  0  0  0
  2 17  1  0
  3  1  1  0
  4  1  1  0
  5  2  1  0
  6 13  1  0
  7  4  1  0
  3  8  1  1
  9 12  1  1
  7 10  1  1
  6 11  1  1
 12 18  1  0
 13 10  1  0
 14  8  1  0
 15 34  1  0
 16 11  1  0
 17 16  1  0
 18 27  1  0
 19 24  2  0
 20  6  1  0
 21 24  1  0
 22  1  1  0
 23 21  2  0
 24 51  1  0
 25 19  1  0
 26  3  1  0
 27 38  1  0
 28 39  2  0
 29 32  1  0
 30 14  1  0
 31 22  1  0
 27 32  1  6
 33  7  1  0
 34 28  1  0
 35 33  1  0
 36 20  1  0
 37 36  1  0
 38 42  1  0
 39 37  1  0
 40  2  1  0
 17 41  1  1
 42 30  1  0
 43 35  1  0
 44  5  2  0
 45  4  2  0
 46 15  2  0
 47 15  2  0
 48 23  1  0
 49 29  1  0
 50  8  2  0
 51 65  1  0
 52 62  2  0
 53 13  2  0
 54 16  2  0
 55 18  2  0
 56 29  2  0
 57  9  1  0
 58 41  1  0
 59 37  2  0
 60 15  1  0
 61 43  2  0
 62 59  1  0
 63 49  2  0
 64 49  1  0
 65 64  2  0
 66 63  1  0
 67 48  2  0
 68 48  1  0
 20 69  1  6
 70 43  1  0
 26 71  1  6
 30 72  1  6
 36 73  1  6
 33 74  1  6
 75 78  1  0
 42 76  1  1
 77 67  1  0
 78 68  2  0
 79 52  1  0
 58 80  1  6
 57 81  1  0
 31 82  1  6
 83 75  1  0
 57 84  1  6
 85 83  1  0
 86 85  1  0
 87 88  1  0
 88 86  1  0
 89 87  1  0
 26 31  1  0
 58 40  1  0
  9  5  1  0
 28 52  1  0
 66 51  2  0
 23 25  1  0
 77 75  2  0
M  END
$$$$
