1326
     RDKit          2D

 31 34  0  0  1  0  0  0  0  0999 V2000
    5.8136   -0.8460    0.0000 S   0  0  0  0  0  0  0  0  0  0  0  0
    3.6702    0.3915    0.0000 S   0  0  0  0  0  0  0  0  0  0  0  0
    7.9421    0.9795    0.0000 O   0  0  0  0  0  0  0  0  0  0  0  0
    5.0992    2.0416    0.0000 O   0  0  0  0  0  0  0  0  0  0  0  0
    8.9546   -0.0131    0.0000 O   0  0  0  0  0  0  0  0  0  0  0  0
    6.5281    2.0416    0.0000 O   0  0  0  0  0  0  0  0  0  0  0  0
    9.1064   -2.1906    0.0000 O   0  0  0  0  0  0  0  0  0  0  0  0
    6.5281    0.3915    0.0000 N   0  0  0  0  0  0  0  0  0  0  0  0
    7.9421   -1.0214    0.0000 N   0  0  0  0  0  0  0  0  0  0  0  0
    2.2020    0.4684    0.0000 N   0  0  0  0  0  0  0  0  0  0  0  0
    2.8694    1.6245    0.0000 N   0  0  0  0  0  0  0  0  0  0  0  0
    1.6500    1.0816    0.0000 N   0  0  0  0  0  0  0  0  0  0  0  0
    2.0625    1.7960    0.0000 N   0  0  0  0  0  0  0  0  0  0  0  0
    6.5281   -0.4335    0.0000 C   0  0  0  0  0  0  0  0  0  0  0  0
    7.3599   -0.4369    0.0000 C   0  0  0  0  0  0  0  0  0  0  0  0
    7.3599    0.3949    0.0000 C   0  0  0  0  0  0  0  0  0  0  0  0
    5.8136    0.8040    0.0000 C   0  0  0  0  0  0  0  0  0  0  0  0
    5.0992    0.3915    0.0000 C   0  0  0  0  0  0  0  0  0  0  0  0
    5.0992   -0.4335    0.0000 C   0  0  0  0  0  0  0  0  0  0  0  0
    4.3846    0.8040    0.0000 C   0  0  0  0  0  0  0  0  0  0  0  0
    8.7394   -0.8096    0.0000 C   0  0  0  0  0  0  0  0  0  0  0  0
    5.8136    1.6291    0.0000 C   0  0  0  0  0  0  0  0  0  0  0  0
    9.3215   -1.3942    0.0000 C   0  0  0  0  0  0  0  0  0  0  0  0
   10.1189   -1.1822    0.0000 C   0  0  0  0  0  0  0  0  0  0  0  0
    2.9557    0.8040    0.0000 C   0  0  0  0  0  0  0  0  0  0  0  0
   10.3341   -0.3858    0.0000 C   0  0  0  0  0  0  0  0  0  0  0  0
   10.7011   -1.7668    0.0000 C   0  0  0  0  0  0  0  0  0  0  0  0
   11.1314   -0.1739    0.0000 C   0  0  0  0  0  0  0  0  0  0  0  0
   11.4984   -1.5550    0.0000 C   0  0  0  0  0  0  0  0  0  0  0  0
   11.7136   -0.7585    0.0000 C   0  0  0  0  0  0  0  0  0  0  0  0
    2.0305   -0.3385    0.0000 C   0  0  0  0  0  0  0  0  0  0  0  0
 14  1  1  1
  1 19  1  0
  2 20  1  0
  2 25  1  0
  3 16  2  0
  4 22  1  0
  5 21  2  0
  6 22  2  0
 23  7  1  1
  8 14  1  0
  8 16  1  0
  8 17  1  0
 15  9  1  1
  9 21  1  0
 10 12  1  0
 10 25  1  0
 10 31  1  0
 11 13  1  0
 11 25  2  0
 12 13  2  0
 14 15  1  0
 15 16  1  0
 17 18  2  0
 17 22  1  0
 18 19  1  0
 18 20  1  0
 21 23  1  0
 23 24  1  0
 24 26  2  0
 24 27  1  0
 26 28  1  0
 27 29  2  0
 28 30  2  0
 29 30  1  0
M  END
$$$$
