
     RDKit          2D

 48 50  0  0  0  0  0  0  0  0999 V2000
   -0.5301   -0.4637    0.0000 O   0  0  0  0  0  0  0  0  0  0  0  0
   -0.8821    0.2265    0.0000 C   0  0  0  0  0  0  0  0  0  0  0  0
   -0.1574    0.6208    0.0000 N   0  0  0  0  0  0  0  0  0  0  0  0
    0.0345    1.4232    0.0000 C   0  0  0  0  0  0  0  0  0  0  0  0
    0.8569    1.4886    0.0000 C   0  0  0  0  0  0  0  0  0  0  0  0
    1.0929    0.8112    0.0000 C   0  0  0  0  0  0  0  0  0  0  0  0
    1.9986    0.7740    0.0000 S   0  0  0  0  0  0  0  0  0  0  0  0
    1.4458   -0.0230    0.0000 O   0  0  0  0  0  0  0  0  0  0  0  0
    2.8250    0.2933    0.0000 O   0  0  0  0  0  0  0  0  0  0  0  0
    2.4128    1.5992    0.0000 C   0  0  0  0  0  0  0  0  0  0  0  0
    1.9594    2.2884    0.0000 C   0  0  0  0  0  0  0  0  0  0  0  0
    2.3295    3.0257    0.0000 N   0  0  0  0  0  0  0  0  0  0  0  0
    1.8761    3.7149    0.0000 C   0  0  0  0  0  0  0  0  0  0  0  0
    2.2462    4.4522    0.0000 C   0  0  0  0  0  0  0  0  0  0  0  0
    3.1531    3.0738    0.0000 C   0  0  0  0  0  0  0  0  0  0  0  0
    3.5233    3.8111    0.0000 C   0  0  0  0  0  0  0  0  0  0  0  0
    0.5464    0.1903    0.0000 C   0  0  0  0  0  0  0  0  0  0  0  0
   -1.5859    0.6570    0.0000 C   0  0  0  0  0  0  0  0  0  0  0  0
   -1.9149    1.4502    0.0000 C   0  0  0  0  0  0  0  0  0  0  0  0
   -2.7396    1.4711    0.0000 O   0  0  0  0  0  0  0  0  0  0  0  0
   -2.3106    0.2627    0.0000 N   0  0  0  0  0  0  0  0  0  0  0  0
   -3.0143    0.6932    0.0000 C   0  0  0  0  0  0  0  0  0  0  0  0
   -3.7390    0.2989    0.0000 C   0  0  0  0  0  0  0  0  0  0  0  0
   -3.7599   -0.5258    0.0000 C   0  0  0  0  0  0  0  0  0  0  0  0
   -2.9498   -0.8595    0.0000 O   0  0  0  0  0  0  0  0  0  0  0  0
   -4.4846   -0.9201    0.0000 C   0  0  0  0  0  0  0  0  0  0  0  0
   -4.5055   -1.7448    0.0000 C   0  0  0  0  0  0  0  0  0  0  0  0
   -5.2465   -2.1496    0.0000 O   0  0  0  0  0  0  0  0  0  0  0  0
   -3.8017   -2.1753    0.0000 C   0  0  0  0  0  0  0  0  0  0  0  0
   -3.0770   -1.7810    0.0000 C   0  0  0  0  0  0  0  0  0  0  0  0
   -3.5413   -1.1291    0.0000 C   0  0  0  0  0  0  0  0  0  0  0  0
   -2.3732   -2.2115    0.0000 C   0  0  0  0  0  0  0  0  0  0  0  0
   -1.6485   -1.8172    0.0000 C   0  0  0  0  0  0  0  0  0  0  0  0
   -0.9447   -2.2477    0.0000 C   0  0  0  0  0  0  0  0  0  0  0  0
   -0.2201   -1.8534    0.0000 N   0  0  0  0  0  0  0  0  0  0  0  0
    0.4837   -2.2839    0.0000 C   0  0  0  0  0  0  0  0  0  0  0  0
    0.5327   -3.1349    0.0000 O   0  0  0  0  0  0  0  0  0  0  0  0
    1.2948   -1.8872    0.0000 C   0  0  0  0  0  0  0  0  0  0  0  0
    2.0971   -2.0792    0.0000 C   0  0  0  0  0  0  0  0  0  0  0  0
    2.5276   -1.3754    0.0000 C   0  0  0  0  0  0  0  0  0  0  0  0
    3.3748   -1.7293    0.0000 C   0  0  0  0  0  0  0  0  0  0  0  0
    1.9912   -0.7485    0.0000 C   0  0  0  0  0  0  0  0  0  0  0  0
    2.8724   -0.3753    0.0000 C   0  0  0  0  0  0  0  0  0  0  0  0
    3.4675    0.4352    0.0000 C   0  0  0  0  0  0  0  0  0  0  0  0
    3.5571   -0.9209    0.0000 C   0  0  0  0  0  0  0  0  0  0  0  0
    1.9749    0.1542    0.0000 O   0  0  0  0  0  0  0  0  0  0  0  0
    1.2711    0.5846    0.0000 C   0  0  0  0  0  0  0  0  0  0  0  0
    1.5393    1.5284    0.0000 O   0  0  0  0  0  0  0  0  0  0  0  0
  2  1  2  0
  2  3  1  0
  2 18  1  0
  4  3  1  0
 17  3  1  0
  5  4  1  0
  6  5  1  0
  6  7  1  1
 17  6  1  0
  8  7  2  0
  9  7  2  0
 10  7  1  0
 10 11  1  0
 11 12  1  0
 13 12  1  0
 15 12  1  0
 13 14  1  0
 15 16  1  0
 17 47  1  6
 19 18  2  0
 18 21  1  0
 19 20  1  0
 22 20  1  0
 22 21  2  0
 22 23  1  0
 23 24  1  0
 24 25  2  0
 24 26  1  0
 26 27  1  0
 27 28  1  1
 27 29  1  0
 29 30  2  0
 30 31  1  0
 30 32  1  0
 32 33  2  0
 33 34  1  0
 34 35  1  0
 36 35  1  0
 36 37  2  0
 36 38  1  0
 38 39  2  0
 39 40  1  0
 40 41  1  6
 40 42  1  0
 42 43  1  1
 42 46  1  0
 43 44  1  0
 43 45  1  0
 47 46  1  0
 47 48  2  0
M  END
$$$$
