1011
     RDKit          2D

 17 18  0  0  0  0  0  0  0  0999 V2000
    1.7606    1.2375    0.0000 O   0  0  0  0  0  0  0  0  0  0  0  0
    1.7606   -2.0625    0.0000 N   0  0  0  0  0  0  0  0  0  0  0  0
    3.9041    2.4751    0.0000 N   0  0  0  0  0  0  0  0  0  0  0  0
    2.4751    0.0000    0.0000 C   0  0  0  0  0  0  0  0  0  0  0  0
    2.4751   -0.8250    0.0000 C   0  0  0  0  0  0  0  0  0  0  0  0
    1.6500    0.0000    0.0000 C   0  0  0  0  0  0  0  0  0  0  0  0
    3.3001    0.0000    0.0000 C   0  0  0  0  0  0  0  0  0  0  0  0
    2.4751    0.8250    0.0000 C   0  0  0  0  0  0  0  0  0  0  0  0
    3.1895    1.2375    0.0000 C   0  0  0  0  0  0  0  0  0  0  0  0
    3.1895   -1.2375    0.0000 C   0  0  0  0  0  0  0  0  0  0  0  0
    1.7606   -1.2375    0.0000 C   0  0  0  0  0  0  0  0  0  0  0  0
    3.1895   -2.0625    0.0000 C   0  0  0  0  0  0  0  0  0  0  0  0
    3.9041    0.8250    0.0000 C   0  0  0  0  0  0  0  0  0  0  0  0
    3.1895    2.0625    0.0000 C   0  0  0  0  0  0  0  0  0  0  0  0
    2.4751   -2.4751    0.0000 C   0  0  0  0  0  0  0  0  0  0  0  0
    4.6185    1.2375    0.0000 C   0  0  0  0  0  0  0  0  0  0  0  0
    4.6185    2.0625    0.0000 C   0  0  0  0  0  0  0  0  0  0  0  0
  1  8  2  0
  2 11  2  0
  2 15  1  0
  3 14  2  0
  3 17  1  0
  4  5  1  0
  4  6  1  0
  4  7  1  0
  4  8  1  0
  5 10  2  0
  5 11  1  0
  8  9  1  0
  9 13  2  0
  9 14  1  0
 10 12  1  0
 12 15  2  0
 13 16  1  0
 16 17  2  0
M  END
$$$$
