
     RDKit          2D

 28 30  0  0  1  0  0  0  0  0999 V2000
    5.6654   -0.5339    0.0000 S   0  0  0  0  0  0  0  0  0  0  0  0
    9.3466   -2.3118    0.0000 S   0  0  0  0  0  0  0  0  0  0  0  0
    7.2100   -0.9498    0.0000 O   0  0  0  0  0  0  0  0  0  0  0  0
    7.7938    1.2916    0.0000 O   0  0  0  0  0  0  0  0  0  0  0  0
    3.5219    0.7036    0.0000 O   0  0  0  0  0  0  0  0  0  0  0  0
    4.9508    2.3537    0.0000 O   0  0  0  0  0  0  0  0  0  0  0  0
    8.0337   -1.5555    0.0000 O   0  0  0  0  0  0  0  0  0  0  0  0
    6.3798    2.3537    0.0000 O   0  0  0  0  0  0  0  0  0  0  0  0
    2.8075    1.9412    0.0000 O   0  0  0  0  0  0  0  0  0  0  0  0
    6.3798    0.7036    0.0000 N   0  0  0  0  0  0  0  0  0  0  0  0
    8.0367   -0.1265    0.0000 N   0  0  0  0  0  0  0  0  0  0  0  0
    2.0930    0.7036    0.0000 N   0  0  0  0  0  0  0  0  0  0  0  0
    7.2117   -0.1248    0.0000 C   0  0  0  0  0  0  0  0  0  0  0  0
    6.3798   -0.1214    0.0000 C   0  0  0  0  0  0  0  0  0  0  0  0
    7.2117    0.7070    0.0000 C   0  0  0  0  0  0  0  0  0  0  0  0
    5.6654    1.1161    0.0000 C   0  0  0  0  0  0  0  0  0  0  0  0
    4.9508    0.7036    0.0000 C   0  0  0  0  0  0  0  0  0  0  0  0
    4.9508   -0.1214    0.0000 C   0  0  0  0  0  0  0  0  0  0  0  0
    4.2364    1.1161    0.0000 C   0  0  0  0  0  0  0  0  0  0  0  0
    8.4477   -0.8418    0.0000 C   0  0  0  0  0  0  0  0  0  0  0  0
    5.6654    1.9412    0.0000 C   0  0  0  0  0  0  0  0  0  0  0  0
    6.4947   -1.3608    0.0000 C   0  0  0  0  0  0  0  0  0  0  0  0
    9.2727   -0.8436    0.0000 C   0  0  0  0  0  0  0  0  0  0  0  0
    9.6837   -1.5588    0.0000 C   0  0  0  0  0  0  0  0  0  0  0  0
   10.5040   -1.6468    0.0000 C   0  0  0  0  0  0  0  0  0  0  0  0
    2.8075    1.1161    0.0000 C   0  0  0  0  0  0  0  0  0  0  0  0
   10.6739   -2.4541    0.0000 C   0  0  0  0  0  0  0  0  0  0  0  0
    9.9586   -2.8652    0.0000 C   0  0  0  0  0  0  0  0  0  0  0  0
 14  1  1  1
  1 18  1  0
  2 24  1  0
  2 28  1  0
 13  3  1  0
  3 22  1  0
  4 15  2  0
  5 19  1  0
  5 26  1  0
  6 21  1  0
  7 20  2  0
  8 21  2  0
  9 26  2  0
 10 14  1  0
 10 15  1  0
 10 16  1  0
 13 11  1  1
 11 20  1  0
 12 26  1  0
 13 14  1  0
 13 15  1  0
 16 17  2  0
 16 21  1  0
 17 18  1  0
 17 19  1  0
 20 23  1  0
 23 24  1  0
 24 25  2  0
 25 27  1  0
 27 28  2  0
M  END
$$$$
