1594
     RDKit          2D

 25 27  0  0  1  0  0  0  0  0999 V2000
    4.6690   -2.3783    0.0000 Cl  0  0  0  0  0  0  0  0  0  0  0  0
    5.7303   -1.4841    0.0000 F   0  0  0  0  0  0  0  0  0  0  0  0
    6.0034    2.3401    0.0000 O   0  0  0  0  0  0  0  0  0  0  0  0
    4.4625    2.3401    0.0000 O   0  0  0  0  0  0  0  0  0  0  0  0
    4.3060    0.9518    0.0000 N   0  0  0  0  0  0  0  0  0  0  0  0
    6.1598    0.9518    0.0000 N   0  0  0  0  0  0  0  0  0  0  0  0
    1.6500    2.2908    0.0000 N   0  0  0  0  0  0  0  0  0  0  0  0
    4.4897    0.1475    0.0000 C   0  0  0  0  0  0  0  0  0  0  0  0
    5.2329   -0.2105    0.0000 C   0  0  0  0  0  0  0  0  0  0  0  0
    3.5018    1.1354    0.0000 C   0  0  0  0  0  0  0  0  0  0  0  0
    5.9762    0.1475    0.0000 C   0  0  0  0  0  0  0  0  0  0  0  0
    4.8204    1.5968    0.0000 C   0  0  0  0  0  0  0  0  0  0  0  0
    5.6454    1.5968    0.0000 C   0  0  0  0  0  0  0  0  0  0  0  0
    3.7723   -0.3256    0.0000 C   0  0  0  0  0  0  0  0  0  0  0  0
    5.3104   -1.0663    0.0000 C   0  0  0  0  0  0  0  0  0  0  0  0
    6.6212   -0.3669    0.0000 C   0  0  0  0  0  0  0  0  0  0  0  0
    3.2586    1.9237    0.0000 C   0  0  0  0  0  0  0  0  0  0  0  0
    3.8299   -1.1830    0.0000 C   0  0  0  0  0  0  0  0  0  0  0  0
    4.6041   -1.5559    0.0000 C   0  0  0  0  0  0  0  0  0  0  0  0
    6.4983   -1.1827    0.0000 C   0  0  0  0  0  0  0  0  0  0  0  0
    7.3892   -0.0655    0.0000 C   0  0  0  0  0  0  0  0  0  0  0  0
    7.1433   -1.6971    0.0000 C   0  0  0  0  0  0  0  0  0  0  0  0
    8.0342   -0.5799    0.0000 C   0  0  0  0  0  0  0  0  0  0  0  0
    7.9113   -1.3956    0.0000 C   0  0  0  0  0  0  0  0  0  0  0  0
    2.4543    2.1073    0.0000 C   0  0  0  0  0  0  0  0  0  0  0  0
  1 19  1  0
  2 20  1  0
  3 13  1  0
  4 12  2  0
  5  8  1  0
  5 10  1  0
  5 12  1  0
  6 11  2  0
  6 13  1  0
  7 25  3  0
  8  9  2  0
  8 14  1  0
  9 11  1  0
  9 15  1  0
 10 17  1  0
 11 16  1  0
 12 13  1  0
 14 18  2  0
 15 19  2  0
 16 20  2  0
 16 21  1  0
 17 25  1  0
 18 19  1  0
 20 22  1  0
 21 23  2  0
 22 24  2  0
 23 24  1  0
M  END
$$$$
