1247
     RDKit          2D

 17 18  0  0  0  0  0  0  0  0999 V2000
    3.3809    2.7761    0.0000 O   0  0  0  0  0  0  0  0  0  0  0  0
    4.5079    0.2690    0.0000 O   0  0  0  0  0  0  0  0  0  0  0  0
    3.0790   -0.5560    0.0000 N   0  0  0  0  0  0  0  0  0  0  0  0
    3.0790    0.2690    0.0000 N   0  0  0  0  0  0  0  0  0  0  0  0
    3.1260    1.9915    0.0000 N   0  0  0  0  0  0  0  0  0  0  0  0
    2.3645   -0.9685    0.0000 C   0  0  0  0  0  0  0  0  0  0  0  0
    2.3645   -1.7935    0.0000 C   0  0  0  0  0  0  0  0  0  0  0  0
    3.0790   -2.2060    0.0000 C   0  0  0  0  0  0  0  0  0  0  0  0
    1.6500   -2.2060    0.0000 C   0  0  0  0  0  0  0  0  0  0  0  0
    3.7935    1.5065    0.0000 C   0  0  0  0  0  0  0  0  0  0  0  0
    3.7935    0.6815    0.0000 C   0  0  0  0  0  0  0  0  0  0  0  0
    3.0790   -3.0310    0.0000 C   0  0  0  0  0  0  0  0  0  0  0  0
    1.6500   -3.0310    0.0000 C   0  0  0  0  0  0  0  0  0  0  0  0
    4.4609    1.9915    0.0000 C   0  0  0  0  0  0  0  0  0  0  0  0
    4.2060    2.7761    0.0000 C   0  0  0  0  0  0  0  0  0  0  0  0
    2.3645   -3.4435    0.0000 C   0  0  0  0  0  0  0  0  0  0  0  0
    4.6909    3.4435    0.0000 C   0  0  0  0  0  0  0  0  0  0  0  0
  1  5  1  0
  1 15  1  0
  2 11  2  0
  3  4  1  0
  3  6  1  0
  4 11  1  0
  5 10  2  0
  6  7  1  0
  7  8  2  0
  7  9  1  0
  8 12  1  0
  9 13  2  0
 10 11  1  0
 10 14  1  0
 12 16  2  0
 13 16  1  0
 14 15  2  0
 15 17  1  0
M  END
$$$$
