1062
     RDKit          2D

 26 27  0  0  1  0  0  0  0  0999 V2000
    1.9058    0.5487    0.0000 O   0  0  0  0  0  0  0  0  0  0  0  0
    3.9683   -0.1658    0.0000 O   0  0  0  0  0  0  0  0  0  0  0  0
    3.9683    1.2632    0.0000 O   0  0  0  0  0  0  0  0  0  0  0  0
    6.8559   -2.3092    0.0000 N   0  0  0  0  0  0  0  0  0  0  0  0
    2.7308    1.3737    0.0000 C   0  0  0  0  0  0  0  0  0  0  0  0
    2.0163    1.7862    0.0000 C   0  0  0  0  0  0  0  0  0  0  0  0
    3.4453    1.7862    0.0000 C   0  0  0  0  0  0  0  0  0  0  0  0
    2.7308    0.5487    0.0000 C   0  0  0  0  0  0  0  0  0  0  0  0
    2.0163    2.6113    0.0000 C   0  0  0  0  0  0  0  0  0  0  0  0
    3.4453    2.6113    0.0000 C   0  0  0  0  0  0  0  0  0  0  0  0
    2.7308    3.0238    0.0000 C   0  0  0  0  0  0  0  0  0  0  0  0
    2.7308   -0.2763    0.0000 C   0  0  0  0  0  0  0  0  0  0  0  0
    3.5558    0.5487    0.0000 C   0  0  0  0  0  0  0  0  0  0  0  0
    3.4453   -0.6888    0.0000 C   0  0  0  0  0  0  0  0  0  0  0  0
    2.0163   -0.6888    0.0000 C   0  0  0  0  0  0  0  0  0  0  0  0
    3.4453   -1.5138    0.0000 C   0  0  0  0  0  0  0  0  0  0  0  0
    2.0163   -1.5138    0.0000 C   0  0  0  0  0  0  0  0  0  0  0  0
    2.7308   -1.9263    0.0000 C   0  0  0  0  0  0  0  0  0  0  0  0
    4.7934   -0.1658    0.0000 C   0  0  0  0  0  0  0  0  0  0  0  0
    5.2059   -0.8803    0.0000 C   0  0  0  0  0  0  0  0  0  0  0  0
    6.0309   -2.3092    0.0000 C   0  0  0  0  0  0  0  0  0  0  0  0
    7.2684   -1.5948    0.0000 C   0  0  0  0  0  0  0  0  0  0  0  0
    7.2684   -3.0238    0.0000 C   0  0  0  0  0  0  0  0  0  0  0  0
    5.6184   -1.5948    0.0000 C   0  0  0  0  0  0  0  0  0  0  0  0
    8.0934   -1.5948    0.0000 C   0  0  0  0  0  0  0  0  0  0  0  0
    8.0934   -3.0238    0.0000 C   0  0  0  0  0  0  0  0  0  0  0  0
  1  8  1  0
  2 13  1  0
  2 19  1  0
  3 13  2  0
  4 21  1  0
  4 22  1  0
  4 23  1  0
  5  6  1  0
  5  7  1  0
  5  8  1  0
  6  9  1  0
  7 10  1  0
  8 12  1  0
  8 13  1  0
  9 11  1  0
 10 11  1  0
 12 14  2  0
 12 15  1  0
 14 16  1  0
 15 17  2  0
 16 18  2  0
 17 18  1  0
 19 20  1  0
 20 24  3  0
 21 24  1  0
 22 25  1  0
 23 26  1  0
M  END
$$$$
