1170
     RDKit          2D

 14 14  0  0  0  0  0  0  0  0999 V2000
    3.1524    1.0049    0.0000 N   0  0  0  0  0  0  0  0  0  0  0  0
    3.2816   -1.1741    0.0000 N   0  0  0  0  0  0  0  0  0  0  0  0
    3.0951   -2.5908    0.0000 N   0  0  0  0  0  0  0  0  0  0  0  0
    1.9614   -1.7209    0.0000 N   0  0  0  0  0  0  0  0  0  0  0  0
    2.3273    1.0049    0.0000 C   0  0  0  0  0  0  0  0  0  0  0  0
    3.7357    1.5882    0.0000 C   0  0  0  0  0  0  0  0  0  0  0  0
    1.7440    1.5882    0.0000 C   0  0  0  0  0  0  0  0  0  0  0  0
    3.7357    2.4132    0.0000 C   0  0  0  0  0  0  0  0  0  0  0  0
    1.7440    2.4132    0.0000 C   0  0  0  0  0  0  0  0  0  0  0  0
    3.1524    2.9966    0.0000 C   0  0  0  0  0  0  0  0  0  0  0  0
    2.3273    2.9966    0.0000 C   0  0  0  0  0  0  0  0  0  0  0  0
    3.4681    0.2426    0.0000 C   0  0  0  0  0  0  0  0  0  0  0  0
    2.9659   -0.4118    0.0000 C   0  0  0  0  0  0  0  0  0  0  0  0
    2.7794   -1.8286    0.0000 C   0  0  0  0  0  0  0  0  0  0  0  0
  1  5  1  0
  1  6  1  0
  1 12  1  0
  2 13  1  0
  2 14  2  0
  3 14  1  0
  4 14  1  0
  5  7  1  0
  6  8  1  0
  7  9  1  0
  8 10  1  0
  9 11  1  0
 10 11  1  0
 12 13  1  0
M  END
$$$$
