1226
     RDKit          2D

 74 79  0  0  1  0  0  0  0  0999 V2000
    8.4681    1.4290    0.0000 O   0  0  0  0  0  0  0  0  0  0  0  0
   14.2432   -1.4290    0.0000 O   0  0  0  0  0  0  0  0  0  0  0  0
    2.3661    3.2904    0.0000 O   0  0  0  0  0  0  0  0  0  0  0  0
   20.3451   -3.2904    0.0000 O   0  0  0  0  0  0  0  0  0  0  0  0
    2.3661    1.6005    0.0000 O   0  0  0  0  0  0  0  0  0  0  0  0
   20.3451   -1.6005    0.0000 O   0  0  0  0  0  0  0  0  0  0  0  0
    3.8495    6.5705    0.0000 O   0  0  0  0  0  0  0  0  0  0  0  0
   18.8617   -6.5705    0.0000 O   0  0  0  0  0  0  0  0  0  0  0  0
    2.4206    4.0955    0.0000 O   0  0  0  0  0  0  0  0  0  0  0  0
   20.2907   -4.0955    0.0000 O   0  0  0  0  0  0  0  0  0  0  0  0
    2.4206    5.7455    0.0000 O   0  0  0  0  0  0  0  0  0  0  0  0
   20.2907   -5.7455    0.0000 O   0  0  0  0  0  0  0  0  0  0  0  0
    9.7056    2.1435    0.0000 O   0  0  0  0  0  0  0  0  0  0  0  0
   13.0057   -2.1435    0.0000 O   0  0  0  0  0  0  0  0  0  0  0  0
    5.9930    2.8579    0.0000 N   0  0  0  0  0  0  0  0  0  0  0  0
   16.7183   -2.8579    0.0000 N   0  0  0  0  0  0  0  0  0  0  0  0
    5.2785    3.2705    0.0000 C   0  0  0  0  0  0  0  0  0  0  0  0
   17.4327   -3.2705    0.0000 C   0  0  0  0  0  0  0  0  0  0  0  0
    5.9930    2.0329    0.0000 C   0  0  0  0  0  0  0  0  0  0  0  0
   16.7183   -2.0329    0.0000 C   0  0  0  0  0  0  0  0  0  0  0  0
    6.8180    2.8579    0.0000 C   0  0  0  0  0  0  0  0  0  0  0  0
   15.8932   -2.8579    0.0000 C   0  0  0  0  0  0  0  0  0  0  0  0
    4.5640    2.8579    0.0000 C   0  0  0  0  0  0  0  0  0  0  0  0
   18.1472   -2.8579    0.0000 C   0  0  0  0  0  0  0  0  0  0  0  0
    5.2785    1.6204    0.0000 C   0  0  0  0  0  0  0  0  0  0  0  0
   17.4327   -1.6204    0.0000 C   0  0  0  0  0  0  0  0  0  0  0  0
    6.4055    3.5724    0.0000 C   0  0  0  0  0  0  0  0  0  0  0  0
   16.3057   -3.5724    0.0000 C   0  0  0  0  0  0  0  0  0  0  0  0
    5.2785    4.0955    0.0000 C   0  0  0  0  0  0  0  0  0  0  0  0
   17.4327   -4.0955    0.0000 C   0  0  0  0  0  0  0  0  0  0  0  0
    4.5640    2.0329    0.0000 C   0  0  0  0  0  0  0  0  0  0  0  0
   18.1472   -2.0329    0.0000 C   0  0  0  0  0  0  0  0  0  0  0  0
    7.2305    2.1435    0.0000 C   0  0  0  0  0  0  0  0  0  0  0  0
   15.4807   -2.1435    0.0000 C   0  0  0  0  0  0  0  0  0  0  0  0
    3.8265    3.2991    0.0000 C   0  0  0  0  0  0  0  0  0  0  0  0
   18.8847   -3.2991    0.0000 C   0  0  0  0  0  0  0  0  0  0  0  0
    4.5640    4.5080    0.0000 C   0  0  0  0  0  0  0  0  0  0  0  0
   18.1472   -4.5080    0.0000 C   0  0  0  0  0  0  0  0  0  0  0  0
    3.8265    1.5918    0.0000 C   0  0  0  0  0  0  0  0  0  0  0  0
   18.8847   -1.5918    0.0000 C   0  0  0  0  0  0  0  0  0  0  0  0
    8.0556    2.1435    0.0000 C   0  0  0  0  0  0  0  0  0  0  0  0
   14.6557   -2.1435    0.0000 C   0  0  0  0  0  0  0  0  0  0  0  0
    3.0790    2.8751    0.0000 C   0  0  0  0  0  0  0  0  0  0  0  0
   19.6323   -2.8751    0.0000 C   0  0  0  0  0  0  0  0  0  0  0  0
    3.0790    2.0158    0.0000 C   0  0  0  0  0  0  0  0  0  0  0  0
   19.6323   -2.0158    0.0000 C   0  0  0  0  0  0  0  0  0  0  0  0
    3.8495    4.0955    0.0000 C   0  0  0  0  0  0  0  0  0  0  0  0
   18.8617   -4.0955    0.0000 C   0  0  0  0  0  0  0  0  0  0  0  0
    4.5640    5.3330    0.0000 C   0  0  0  0  0  0  0  0  0  0  0  0
   18.1472   -5.3330    0.0000 C   0  0  0  0  0  0  0  0  0  0  0  0
    3.8495    5.7455    0.0000 C   0  0  0  0  0  0  0  0  0  0  0  0
   18.8617   -5.7455    0.0000 C   0  0  0  0  0  0  0  0  0  0  0  0
    3.1351    4.5080    0.0000 C   0  0  0  0  0  0  0  0  0  0  0  0
   19.5762   -4.5080    0.0000 C   0  0  0  0  0  0  0  0  0  0  0  0
    3.1351    5.3330    0.0000 C   0  0  0  0  0  0  0  0  0  0  0  0
   19.5762   -5.3330    0.0000 C   0  0  0  0  0  0  0  0  0  0  0  0
    9.2931    1.4290    0.0000 C   0  0  0  0  0  0  0  0  0  0  0  0
   13.4182   -1.4290    0.0000 C   0  0  0  0  0  0  0  0  0  0  0  0
    1.6500    2.8806    0.0000 C   0  0  0  0  0  0  0  0  0  0  0  0
   21.0612   -2.8806    0.0000 C   0  0  0  0  0  0  0  0  0  0  0  0
    2.3693    0.7755    0.0000 C   0  0  0  0  0  0  0  0  0  0  0  0
   20.3420   -0.7755    0.0000 C   0  0  0  0  0  0  0  0  0  0  0  0
    9.7056    0.7145    0.0000 C   0  0  0  0  0  0  0  0  0  0  0  0
   13.0057   -0.7145    0.0000 C   0  0  0  0  0  0  0  0  0  0  0  0
   10.5306    0.7145    0.0000 C   0  0  0  0  0  0  0  0  0  0  0  0
   12.1807   -0.7145    0.0000 C   0  0  0  0  0  0  0  0  0  0  0  0
    4.5640    6.9830    0.0000 C   0  0  0  0  0  0  0  0  0  0  0  0
   18.1472   -6.9830    0.0000 C   0  0  0  0  0  0  0  0  0  0  0  0
    1.7061    4.5080    0.0000 C   0  0  0  0  0  0  0  0  0  0  0  0
   21.0052   -4.5080    0.0000 C   0  0  0  0  0  0  0  0  0  0  0  0
    2.4206    6.5705    0.0000 C   0  0  0  0  0  0  0  0  0  0  0  0
   20.2907   -6.5705    0.0000 C   0  0  0  0  0  0  0  0  0  0  0  0
   10.9431    0.0000    0.0000 C   0  0  0  0  0  0  0  0  0  0  0  0
   11.7681    0.0000    0.0000 C   0  0  0  0  0  0  0  0  0  0  0  0
  1 41  1  0
  1 57  1  0
  2 42  1  0
  2 58  1  0
  3 43  1  0
  3 59  1  0
  4 44  1  0
  4 60  1  0
  5 45  1  0
  5 61  1  0
  6 46  1  0
  6 62  1  0
  7 51  1  0
  7 67  1  0
  8 52  1  0
  8 68  1  0
  9 53  1  0
  9 69  1  0
 10 54  1  0
 10 70  1  0
 11 55  1  0
 11 71  1  0
 12 56  1  0
 12 72  1  0
 13 57  2  0
 14 58  2  0
 15 17  1  0
 15 19  1  0
 15 21  1  0
 15 27  1  0
 16 18  1  0
 16 20  1  0
 16 22  1  0
 16 28  1  0
 17 23  1  0
 17 29  1  1
 18 24  1  0
 18 30  1  1
 19 25  1  0
 20 26  1  0
 21 33  1  0
 22 34  1  0
 23 31  2  0
 23 35  1  0
 24 32  2  0
 24 36  1  0
 25 31  1  0
 26 32  1  0
 29 37  1  0
 30 38  1  0
 31 39  1  0
 32 40  1  0
 33 41  1  0
 34 42  1  0
 35 43  2  0
 36 44  2  0
 37 47  2  0
 37 49  1  0
 38 48  2  0
 38 50  1  0
 39 45  2  0
 40 46  2  0
 43 45  1  0
 44 46  1  0
 47 53  1  0
 48 54  1  0
 49 51  2  0
 50 52  2  0
 51 55  1  0
 52 56  1  0
 53 55  2  0
 54 56  2  0
 57 63  1  0
 58 64  1  0
 63 65  1  0
 64 66  1  0
 65 73  1  0
 66 74  1  0
 73 74  2  0
M  CHG  2  15   1  16   1
M  END
$$$$
