1136
     RDKit          2D

 30 33  0  0  1  0  0  0  0  0999 V2000
    4.4487    1.9787    0.0000 O   0  0  0  0  0  0  0  0  0  0  0  0
    3.9207    0.4155    0.0000 O   0  0  0  0  0  0  0  0  0  0  0  0
    5.8364   -2.8440    0.0000 O   0  0  0  0  0  0  0  0  0  0  0  0
    4.2186   -3.1683    0.0000 O   0  0  0  0  0  0  0  0  0  0  0  0
    3.7352    4.6773    0.0000 N   0  0  0  0  0  0  0  0  0  0  0  0
    5.0106   -0.8234    0.0000 N   0  0  0  0  0  0  0  0  0  0  0  0
    4.1477    3.4078    0.0000 C   0  0  0  0  0  0  0  0  0  0  0  0
    3.3227    3.4078    0.0000 C   0  0  0  0  0  0  0  0  0  0  0  0
    4.4026    4.1924    0.0000 C   0  0  0  0  0  0  0  0  0  0  0  0
    3.0676    4.1924    0.0000 C   0  0  0  0  0  0  0  0  0  0  0  0
    4.7127    2.7603    0.0000 C   0  0  0  0  0  0  0  0  0  0  0  0
    4.7296    0.5777    0.0000 C   0  0  0  0  0  0  0  0  0  0  0  0
    4.9936    1.3593    0.0000 C   0  0  0  0  0  0  0  0  0  0  0  0
    5.2746   -0.0418    0.0000 C   0  0  0  0  0  0  0  0  0  0  0  0
    5.2403    4.3840    0.0000 C   0  0  0  0  0  0  0  0  0  0  0  0
    2.7575    2.7603    0.0000 C   0  0  0  0  0  0  0  0  0  0  0  0
    5.5547    2.9326    0.0000 C   0  0  0  0  0  0  0  0  0  0  0  0
    2.2299    4.3840    0.0000 C   0  0  0  0  0  0  0  0  0  0  0  0
    5.8202    3.7499    0.0000 C   0  0  0  0  0  0  0  0  0  0  0  0
    5.5555   -1.4429    0.0000 C   0  0  0  0  0  0  0  0  0  0  0  0
    1.9156    2.9326    0.0000 C   0  0  0  0  0  0  0  0  0  0  0  0
    1.6500    3.7499    0.0000 C   0  0  0  0  0  0  0  0  0  0  0  0
    5.2915   -2.2245    0.0000 C   0  0  0  0  0  0  0  0  0  0  0  0
    5.5724   -3.6256    0.0000 C   0  0  0  0  0  0  0  0  0  0  0  0
    4.7635   -3.7878    0.0000 C   0  0  0  0  0  0  0  0  0  0  0  0
    6.1173   -4.2450    0.0000 C   0  0  0  0  0  0  0  0  0  0  0  0
    4.4995   -4.5694    0.0000 C   0  0  0  0  0  0  0  0  0  0  0  0
    5.8533   -5.0266    0.0000 C   0  0  0  0  0  0  0  0  0  0  0  0
    5.0444   -5.1888    0.0000 C   0  0  0  0  0  0  0  0  0  0  0  0
    3.4097   -3.3305    0.0000 C   0  0  0  0  0  0  0  0  0  0  0  0
  1 11  1  0
  1 13  1  0
  2 12  1  0
  3 23  1  0
  3 24  1  0
  4 25  1  0
  4 30  1  0
  5  9  1  0
  5 10  1  0
  6 14  1  0
  6 20  1  0
  7  8  1  0
  7  9  2  0
  7 11  1  0
  8 10  2  0
  8 16  1  0
  9 15  1  0
 10 18  1  0
 11 17  2  0
 12 13  1  0
 12 14  1  0
 15 19  2  0
 16 21  2  0
 17 19  1  0
 18 22  2  0
 20 23  1  0
 21 22  1  0
 24 25  2  0
 24 26  1  0
 25 27  1  0
 26 28  2  0
 27 29  2  0
 28 29  1  0
M  END
$$$$
