
     RDKit          2D

 11 12  0  0  0  0  0  0  0  0999 V2000
    1.6436    0.3570    0.0000 C   0  0  0  0  0  0  0  0  0  0  0  0
    0.2526    0.2537    0.0000 C   0  0  0  0  0  0  0  0  0  0  0  0
    1.3626   -0.1549    0.0000 C   0  0  0  0  0  0  0  0  0  0  0  0
    0.1351   -2.0602    0.0000 C   0  0  0  0  0  0  0  0  0  0  0  0
    0.5004   -1.3997    0.0000 C   0  0  0  0  0  0  0  0  0  0  0  0
    1.6411   -2.0402    0.0000 C   0  0  0  0  0  0  0  0  0  0  0  0
    0.9106   -1.6699    0.0000 C   0  0  0  0  0  0  0  0  0  0  0  0
    1.9362   -1.4148    0.0000 C   0  0  0  0  0  0  0  0  0  0  0  0
    0.9807   -0.1341    0.0000 C   0  0  0  0  0  0  0  0  0  0  0  0
    1.1407   -0.9495    0.0000 C   0  0  0  0  0  0  0  0  0  0  0  0
    2.7243   -1.1707    0.0000 O   0  0  0  0  0  0  0  0  0  0  0  0
  5  4  1  0
  7  4  1  1
  7  6  1  0
  8  6  1  0
  9  1  1  0
  9  2  1  0
  9  7  1  0
 10  3  1  1
 10  5  1  0
 10  8  1  0
 10  9  1  0
 11  8  2  0
M  END
$$$$
