
     RDKit          2D

 31 33  0  0  0  0  0  0  0  0999 V2000
   -2.1050    0.2612    0.0000 C   0  0  0  0  0  0  0  0  0  0  0  0
   -2.9255    0.1750    0.0000 C   0  0  0  0  0  0  0  0  0  0  0  0
   -1.7695   -0.4923    0.0000 C   0  0  0  0  0  0  0  0  0  0  0  0
   -1.6925    0.9757    0.0000 C   0  0  0  0  0  0  0  0  0  0  0  0
   -3.0971   -0.6318    0.0000 C   0  0  0  0  0  0  0  0  0  0  0  0
   -3.5387    0.7269    0.0000 C   0  0  0  0  0  0  0  0  0  0  0  0
   -2.3826   -1.0445    0.0000 O   0  0  0  0  0  0  0  0  0  0  0  0
   -0.9624   -0.6639    0.0000 C   0  0  0  0  0  0  0  0  0  0  0  0
   -0.8675    0.9757    0.0000 C   0  0  0  0  0  0  0  0  0  0  0  0
   -2.1050    1.6902    0.0000 O   0  0  0  0  0  0  0  0  0  0  0  0
   -3.8817   -0.8869    0.0000 C   0  0  0  0  0  0  0  0  0  0  0  0
   -4.3233    0.4722    0.0000 C   0  0  0  0  0  0  0  0  0  0  0  0
   -0.7076   -1.4485    0.0000 C   0  0  0  0  0  0  0  0  0  0  0  0
   -0.4550    1.6902    0.0000 C   0  0  0  0  0  0  0  0  0  0  0  0
   -0.4550    0.2612    0.0000 C   0  0  0  0  0  0  0  0  0  0  0  0
   -4.4948   -0.3347    0.0000 C   0  0  0  0  0  0  0  0  0  0  0  0
    0.0993   -1.6200    0.0000 C   0  0  0  0  0  0  0  0  0  0  0  0
    0.3699    1.6902    0.0000 C   0  0  0  0  0  0  0  0  0  0  0  0
    0.3699    0.2612    0.0000 C   0  0  0  0  0  0  0  0  0  0  0  0
    0.3542   -2.4046    0.0000 C   0  0  0  0  0  0  0  0  0  0  0  0
    0.7824    0.9757    0.0000 C   0  0  0  0  0  0  0  0  0  0  0  0
    0.7824    2.4047    0.0000 I   0  0  0  0  0  0  0  0  0  0  0  0
    0.7824   -0.4532    0.0000 I   0  0  0  0  0  0  0  0  0  0  0  0
    1.6074    0.9757    0.0000 O   0  0  0  0  0  0  0  0  0  0  0  0
    2.0199    0.2612    0.0000 C   0  0  0  0  0  0  0  0  0  0  0  0
    2.8449    0.2612    0.0000 C   0  0  0  0  0  0  0  0  0  0  0  0
    3.2575   -0.4532    0.0000 N   0  0  0  0  0  0  0  0  0  0  0  0
    2.8449   -1.1677    0.0000 C   0  0  0  0  0  0  0  0  0  0  0  0
    4.0825   -0.4532    0.0000 C   0  0  0  0  0  0  0  0  0  0  0  0
    3.2575   -1.8822    0.0000 C   0  0  0  0  0  0  0  0  0  0  0  0
    4.4948   -1.1677    0.0000 C   0  0  0  0  0  0  0  0  0  0  0  0
  1  2  1  0
  1  3  2  0
  1  4  1  0
  2  5  2  0
  2  6  1  0
  3  7  1  0
  3  8  1  0
  4  9  1  0
  4 10  2  0
  5 11  1  0
  6 12  2  0
  8 13  1  0
  9 14  2  0
  9 15  1  0
 11 16  2  0
 13 17  1  0
 14 18  1  0
 15 19  2  0
 17 20  1  0
 18 21  2  0
 18 22  1  0
 19 23  1  0
 21 24  1  0
 24 25  1  0
 25 26  1  0
 26 27  1  0
 27 28  1  0
 27 29  1  0
 28 30  1  0
 29 31  1  0
  5  7  1  0
 12 16  1  0
 19 21  1  0
M  END
$$$$
