
     RDKit          2D

 26 27  0  0  0  0  0  0  0  0999 V2000
    7.2023  -23.5153    0.0000 C   0  0  0  0  0  0  0  0  0  0  0  0
    6.4877  -23.1028    0.0000 C   0  0  0  0  0  0  0  0  0  0  0  0
   12.2036  -20.6279    0.0000 C   0  0  0  0  0  0  0  0  0  0  0  0
    9.3457  -23.1029    0.0000 N   0  0  0  0  0  0  0  0  0  0  0  0
    9.3457  -22.2779    0.0000 N   0  0  0  0  0  0  0  0  0  0  0  0
    7.2023  -24.3404    0.0000 C   0  0  0  0  0  0  0  0  0  0  0  0
   15.0615  -20.6279    0.0000 C   0  0  0  0  0  0  0  0  0  0  0  0
    7.9167  -23.1028    0.0000 C   0  0  0  0  0  0  0  0  0  0  0  0
   11.4891  -21.0404    0.0000 C   0  0  0  0  0  0  0  0  0  0  0  0
   14.3471  -21.0404    0.0000 C   0  0  0  0  0  0  0  0  0  0  0  0
    6.4877  -22.2778    0.0000 O   0  0  0  0  0  0  0  0  0  0  0  0
   12.2036  -19.8028    0.0000 O   0  0  0  0  0  0  0  0  0  0  0  0
    8.6312  -23.5154    0.0000 C   0  0  0  0  0  0  0  0  0  0  0  0
   15.7760  -21.0403    0.0000 O   0  0  0  0  0  0  0  0  0  0  0  0
   12.9181  -21.0404    0.0000 N   0  0  0  0  0  0  0  0  0  0  0  0
    7.9167  -24.7529    0.0000 C   0  0  0  0  0  0  0  0  0  0  0  0
   11.4891  -21.8654    0.0000 C   0  0  0  0  0  0  0  0  0  0  0  0
   10.7747  -20.6279    0.0000 C   0  0  0  0  0  0  0  0  0  0  0  0
   10.0602  -21.8654    0.0000 C   0  0  0  0  0  0  0  0  0  0  0  0
    5.7732  -23.5153    0.0000 O   0  0  0  0  0  0  0  0  0  0  0  0
   13.6325  -20.6279    0.0000 C   0  0  0  0  0  0  0  0  0  0  0  0
   15.0615  -19.8028    0.0000 O   0  0  0  0  0  0  0  0  0  0  0  0
    8.6312  -24.3404    0.0000 C   0  0  0  0  0  0  0  0  0  0  0  0
   10.0602  -21.0404    0.0000 C   0  0  0  0  0  0  0  0  0  0  0  0
   10.7747  -22.2779    0.0000 C   0  0  0  0  0  0  0  0  0  0  0  0
    6.4877  -24.7529    0.0000 O   0  0  0  0  0  0  0  0  0  0  0  0
  2  1  1  0
  3  9  1  0
  4 13  1  0
  5  4  2  0
  6  1  2  0
  7 10  1  0
  8  1  1  0
  9 17  2  0
 10 21  1  0
 11  2  2  0
 12  3  2  0
 13  8  2  0
 14  7  1  0
 15  3  1  0
 16  6  1  0
 17 25  1  0
 18 24  2  0
 19  5  1  0
 20  2  1  0
 21 15  1  0
 22  7  2  0
 23 13  1  0
 24 19  1  0
 25 19  2  0
 26  6  1  0
 16 23  2  0
 18  9  1  0
M  END
$$$$
