
     RDKit          2D

 35 36  0  0  0  0  0  0  0  0999 V2000
    5.7461   -5.7468    0.0000 C   0  0  0  0  0  0  0  0  0  0  0  0
    5.7461   -4.9218    0.0000 C   0  0  0  0  0  0  0  0  0  0  0  0
    7.1750   -4.9218    0.0000 C   0  0  0  0  0  0  0  0  0  0  0  0
    7.1750   -5.7468    0.0000 C   0  0  0  0  0  0  0  0  0  0  0  0
    6.4605   -4.5093    0.0000 C   0  0  0  0  0  0  0  0  0  0  0  0
    7.1750   -3.2718    0.0000 C   0  0  0  0  0  0  0  0  0  0  0  0
    5.7461   -3.2718    0.0000 C   0  0  0  0  0  0  0  0  0  0  0  0
    6.4605   -3.6842    0.0000 C   0  0  0  0  0  0  0  0  0  0  0  0
    6.4605   -2.8593    0.0000 C   0  0  0  0  0  0  0  0  0  0  0  0
    6.4605   -6.1592    0.0000 C   0  0  0  0  0  0  0  0  0  0  0  0
    7.8894   -6.1592    0.0000 S   0  0  0  0  0  0  0  0  0  0  0  0
    9.3184   -6.1592    0.0000 S   0  0  0  0  0  0  0  0  0  0  0  0
   10.0300   -5.7965    0.0000 C   0  0  0  0  0  0  0  0  0  0  0  0
   10.0300   -4.9715    0.0000 C   0  0  0  0  0  0  0  0  0  0  0  0
   11.4590   -4.9715    0.0000 C   0  0  0  0  0  0  0  0  0  0  0  0
   11.4590   -5.7965    0.0000 C   0  0  0  0  0  0  0  0  0  0  0  0
   10.7445   -4.5590    0.0000 C   0  0  0  0  0  0  0  0  0  0  0  0
   11.4590   -3.3215    0.0000 C   0  0  0  0  0  0  0  0  0  0  0  0
   10.0300   -3.3215    0.0000 C   0  0  0  0  0  0  0  0  0  0  0  0
   10.7445   -3.7340    0.0000 C   0  0  0  0  0  0  0  0  0  0  0  0
   10.7445   -2.9089    0.0000 C   0  0  0  0  0  0  0  0  0  0  0  0
   10.7445   -6.2089    0.0000 C   0  0  0  0  0  0  0  0  0  0  0  0
    8.6038   -5.7468    0.0000 C   0  0  0  0  0  0  0  0  0  0  0  0
   12.1735   -6.2089    0.0000 C   0  0  0  0  0  0  0  0  0  0  0  0
   12.8879   -5.7965    0.0000 C   0  0  0  0  0  0  0  0  0  0  0  0
   12.1735   -7.0340    0.0000 C   0  0  0  0  0  0  0  0  0  0  0  0
   13.0888   -6.6846    0.0000 C   0  0  0  0  0  0  0  0  0  0  0  0
    5.0316   -6.1592    0.0000 C   0  0  0  0  0  0  0  0  0  0  0  0
    5.0316   -6.9842    0.0000 C   0  0  0  0  0  0  0  0  0  0  0  0
    4.3171   -5.7467    0.0000 C   0  0  0  0  0  0  0  0  0  0  0  0
    4.1529   -6.7045    0.0000 C   0  0  0  0  0  0  0  0  0  0  0  0
    5.0316   -4.5093    0.0000 O   0  0  0  0  0  0  0  0  0  0  0  0
   12.1735   -4.5590    0.0000 O   0  0  0  0  0  0  0  0  0  0  0  0
    8.1912   -5.0324    0.0000 C   0  0  0  0  0  0  0  0  0  0  0  0
    9.0163   -5.0323    0.0000 C   0  0  0  0  0  0  0  0  0  0  0  0
 10  1  2  0
  1  2  1  0
  1 28  1  0
  2  5  2  0
  2 32  1  0
  5  3  1  0
  3  4  2  0
 10  4  1  0
  4 11  1  0
  5  8  1  0
  8  6  1  0
  8  7  1  0
  8  9  1  0
 11 23  1  0
 12 13  1  0
 23 12  1  0
 22 13  1  0
 13 14  2  0
 14 17  1  0
 17 15  2  0
 15 16  1  0
 15 33  1  0
 22 16  2  0
 16 24  1  0
 17 20  1  0
 20 18  1  0
 20 19  1  0
 20 21  1  0
 24 25  1  0
 24 26  1  0
 24 27  1  0
 28 29  1  0
 28 30  1  0
 28 31  1  0
 34 23  1  0
 35 23  1  0
M  END
$$$$
