
     RDKit          2D

 63 68  0  0  1  0  0  0  0  0999 V2000
   12.7360   -9.5544    0.0000 C   0  0  0  0  0  0  0  0  0  0  0  0
   12.7325  -10.3858    0.0000 C   0  0  0  0  0  0  0  0  0  0  0  0
   12.0240  -10.7973    0.0000 C   0  0  0  0  0  0  0  0  0  0  0  0
   12.0248  -11.6259    0.0000 C   0  0  0  0  0  0  0  0  0  0  0  0
   11.2981  -10.3908    0.0000 C   0  0  0  0  0  0  0  0  0  0  0  0
   10.5922   -9.1544    0.0000 C   0  0  0  0  0  0  0  0  0  0  0  0
   11.3003   -9.5698    0.0000 C   0  0  0  0  0  0  0  0  0  0  0  0
   12.0192   -9.1661    0.0000 C   0  0  0  0  0  0  0  0  0  0  0  0
   10.5990   -8.3311    0.0000 C   0  0  0  0  0  0  0  0  0  0  0  0
   11.3137   -7.9232    0.0000 C   0  0  0  0  0  0  0  0  0  0  0  0
   12.0362   -6.6998    0.0000 C   0  0  0  0  0  0  0  0  0  0  0  0
   11.3220   -7.1013    0.0000 C   0  0  0  0  0  0  0  0  0  0  0  0
   12.7462   -7.1158    0.0000 C   0  0  0  0  0  0  0  0  0  0  0  0
   12.7370   -7.9339    0.0000 O   0  0  0  0  0  0  0  0  0  0  0  0
   13.4575   -6.7169    0.0000 C   0  0  0  0  0  0  0  0  0  0  0  0
   14.1639   -7.1318    0.0000 C   0  0  0  0  0  0  0  0  0  0  0  0
   15.5659   -7.9642    0.0000 C   0  0  0  0  0  0  0  0  0  0  0  0
   15.5760   -7.1494    0.0000 C   0  0  0  0  0  0  0  0  0  0  0  0
   14.8729   -6.7353    0.0000 C   0  0  0  0  0  0  0  0  0  0  0  0
   14.8526   -8.3649    0.0000 C   0  0  0  0  0  0  0  0  0  0  0  0
   13.4334   -9.1501    0.0000 C   0  0  0  0  0  0  0  0  0  0  0  0
   14.1305   -9.5658    0.0000 C   0  0  0  0  0  0  0  0  0  0  0  0
   14.8380   -9.1754    0.0000 N   0  0  0  0  0  0  0  0  0  0  0  0
   12.6063  -12.2109    0.0000 O   0  0  0  0  0  0  0  0  0  0  0  0
    9.8711   -9.5629    0.0000 C   0  0  0  0  0  0  0  0  0  0  0  0
    9.8691  -10.3870    0.0000 C   0  0  0  0  0  0  0  0  0  0  0  0
    9.1564  -10.7950    0.0000 C   0  0  0  0  0  0  0  0  0  0  0  0
    9.1507  -11.6167    0.0000 O   0  0  0  0  0  0  0  0  0  0  0  0
   10.5747  -11.6265    0.0000 C   0  0  0  0  0  0  0  0  0  0  0  0
   10.5804  -10.8049    0.0000 O   0  0  0  0  0  0  0  0  0  0  0  0
   10.5695  -12.4515    0.0000 C   0  0  0  0  0  0  0  0  0  0  0  0
   16.2752   -8.3888    0.0000 C   0  0  0  0  0  0  0  0  0  0  0  0
    9.1580   -9.1491    0.0000 O   0  0  0  0  0  0  0  0  0  0  0  0
    8.4377   -9.5581    0.0000 C   0  0  0  0  0  0  0  0  0  0  0  0
    9.8697   -8.7358    0.0000 C   0  0  0  0  0  0  0  0  0  0  0  0
   12.0446   -5.8727    0.0000 C   0  0  0  0  0  0  0  0  0  0  0  0
   13.4669   -5.8898    0.0000 C   0  0  0  0  0  0  0  0  0  0  0  0
    9.8836   -7.9095    0.0000 O   0  0  0  0  0  0  0  0  0  0  0  0
   10.6126   -6.6769    0.0000 O   0  0  0  0  0  0  0  0  0  0  0  0
    9.1655   -7.4972    0.0000 C   0  0  0  0  0  0  0  0  0  0  0  0
    8.4472   -7.9095    0.0000 C   0  0  0  0  0  0  0  0  0  0  0  0
    9.1646   -6.6701    0.0000 O   0  0  0  0  0  0  0  0  0  0  0  0
   13.4396   -8.3229    0.0000 O   0  0  0  0  0  0  0  0  0  0  0  0
   12.0117   -8.3371    0.0000 O   0  0  0  0  0  0  0  0  0  0  0  0
   10.5950   -7.5100    0.0000 C   0  0  0  0  0  0  0  0  0  0  0  0
   14.1443   -7.9383    0.0000 O   0  0  0  0  0  0  0  0  0  0  0  0
   14.1657  -10.3831    0.0000 C   0  0  0  0  0  0  0  0  0  0  0  0
   13.4460  -10.7947    0.0000 C   0  0  0  0  0  0  0  0  0  0  0  0
   13.4419  -11.6206    0.0000 O   0  0  0  0  0  0  0  0  0  0  0  0
   14.8881  -10.7852    0.0000 C   0  0  0  0  0  0  0  0  0  0  0  0
   15.5990  -10.3600    0.0000 N   0  0  0  0  0  0  0  0  0  0  0  0
   16.3213  -10.7578    0.0000 N   0  0  0  0  0  0  0  0  0  0  0  0
   16.3369  -11.5815    0.0000 C   0  0  0  0  0  0  0  0  0  0  0  0
   17.0635  -11.9834    0.0000 C   0  0  0  0  0  0  0  0  0  0  0  0
   17.7701  -11.5541    0.0000 N   0  0  0  0  0  0  0  0  0  0  0  0
   17.7544  -10.7271    0.0000 C   0  0  0  0  0  0  0  0  0  0  0  0
   17.0320  -10.3295    0.0000 C   0  0  0  0  0  0  0  0  0  0  0  0
   18.4925  -11.9561    0.0000 C   0  0  0  0  0  0  0  0  0  0  0  0
   18.6002  -12.7758    0.0000 C   0  0  0  0  0  0  0  0  0  0  0  0
   19.4122  -12.9308    0.0000 C   0  0  0  0  0  0  0  0  0  0  0  0
   19.8140  -12.2083    0.0000 C   0  0  0  0  0  0  0  0  0  0  0  0
   19.2489  -11.6034    0.0000 C   0  0  0  0  0  0  0  0  0  0  0  0
   11.2949   -8.7273    0.0000 C   0  0  0  0  0  0  0  0  0  0  0  0
 28 29  1  0
 29  4  1  0
  4  3  1  0
 29 31  1  6
  3  2  2  0
 17 32  1  0
 30  5  1  0
 25 33  1  6
 13 14  1  6
 33 34  1  0
 16 15  1  0
  6 35  1  6
 12 39  1  6
 15 13  1  0
 11 36  1  6
  5  7  2  0
 15 37  1  1
  6 25  1  0
  9 38  1  1
  1  2  1  0
  2 48  1  0
 38 40  1  0
 20 17  1  0
 40 41  1  0
 17 18  2  0
 40 42  2  0
 18 19  1  0
 21 43  1  0
 19 16  2  0
  8 44  1  0
 47 22  1  0
 10 45  1  1
 21  1  1  0
 20 46  2  0
  7  8  1  0
 10  9  1  0
 21 22  2  0
 47 48  2  0
 48 49  1  0
 22 23  1  0
 47 50  1  0
 23 20  1  0
 50 51  2  0
  9  6  1  0
 51 52  1  0
  4 24  2  0
  1  8  2  0
 26 25  1  0
  3  5  1  0
 52 53  1  0
 53 54  1  0
 54 55  1  0
 55 56  1  0
 56 57  1  0
 57 52  1  0
 13 11  1  0
 55 58  1  0
 11 12  1  0
 12 10  1  0
 26 27  2  0
 27 28  1  0
 58 59  1  0
 59 60  1  0
 60 61  1  0
 61 62  1  0
 62 58  1  0
 29 30  1  0
  7 63  1  0
M  END
$$$$
