1085
     RDKit          2D

 15 16  0  0  1  0  0  0  0  0999 V2000
    4.1277   -1.4158    0.0000 O   0  0  0  0  0  0  0  0  0  0  0  0
    2.8178   -2.0833    0.0000 O   0  0  0  0  0  0  0  0  0  0  0  0
    5.1834    0.7557    0.0000 N   0  0  0  0  0  0  0  0  0  0  0  0
    5.3229    2.0833    0.0000 N   0  0  0  0  0  0  0  0  0  0  0  0
    3.7152   -0.1463    0.0000 C   0  0  0  0  0  0  0  0  0  0  0  0
    3.0478   -0.6312    0.0000 C   0  0  0  0  0  0  0  0  0  0  0  0
    3.7152    0.6787    0.0000 C   0  0  0  0  0  0  0  0  0  0  0  0
    4.3827   -0.6312    0.0000 C   0  0  0  0  0  0  0  0  0  0  0  0
    2.2631   -0.3763    0.0000 C   0  0  0  0  0  0  0  0  0  0  0  0
    3.3027   -1.4158    0.0000 C   0  0  0  0  0  0  0  0  0  0  0  0
    4.4297    1.0913    0.0000 C   0  0  0  0  0  0  0  0  0  0  0  0
    1.6500   -0.9283    0.0000 C   0  0  0  0  0  0  0  0  0  0  0  0
    4.5160    1.9117    0.0000 C   0  0  0  0  0  0  0  0  0  0  0  0
    5.7354    1.3688    0.0000 C   0  0  0  0  0  0  0  0  0  0  0  0
    5.3549   -0.0513    0.0000 C   0  0  0  0  0  0  0  0  0  0  0  0
  1  8  1  0
  1 10  1  0
  2 10  2  0
  3 11  1  0
  3 14  1  0
  3 15  1  0
  4 13  1  0
  4 14  2  0
  5  6  1  0
  5  7  1  1
  5  8  1  0
  6  9  1  1
  6 10  1  0
  7 11  1  0
  9 12  1  0
 11 13  2  0
M  END
$$$$
