1121
     RDKit          2D

 13 13  0  0  0  0  0  0  0  0999 V2000
    3.7934   -0.1279    0.0000 O   0  0  0  0  0  0  0  0  0  0  0  0
    4.5079    1.1096    0.0000 O   0  0  0  0  0  0  0  0  0  0  0  0
    3.0790    1.1096    0.0000 N   0  0  0  0  0  0  0  0  0  0  0  0
    3.7934    2.3471    0.0000 N   0  0  0  0  0  0  0  0  0  0  0  0
    2.3645   -0.1279    0.0000 C   0  0  0  0  0  0  0  0  0  0  0  0
    2.3645   -0.9529    0.0000 C   0  0  0  0  0  0  0  0  0  0  0  0
    3.0790   -1.3654    0.0000 C   0  0  0  0  0  0  0  0  0  0  0  0
    1.6500   -1.3654    0.0000 C   0  0  0  0  0  0  0  0  0  0  0  0
    3.0790    0.2846    0.0000 C   0  0  0  0  0  0  0  0  0  0  0  0
    3.0790   -2.1904    0.0000 C   0  0  0  0  0  0  0  0  0  0  0  0
    1.6500   -2.1904    0.0000 C   0  0  0  0  0  0  0  0  0  0  0  0
    2.3645   -2.6029    0.0000 C   0  0  0  0  0  0  0  0  0  0  0  0
    3.7934    1.5221    0.0000 C   0  0  0  0  0  0  0  0  0  0  0  0
  1  9  2  0
  2 13  2  0
  3  9  1  0
  3 13  1  0
  4 13  1  0
  5  6  1  0
  5  9  1  0
  6  7  2  0
  6  8  1  0
  7 10  1  0
  8 11  2  0
 10 12  2  0
 11 12  1  0
M  END
$$$$
