1094
     RDKit          2D

 22 24  0  0  1  0  0  0  0  0999 V2000
    5.9369    0.2231    0.0000 O   0  0  0  0  0  0  0  0  0  0  0  0
    5.9369   -2.2519    0.0000 O   0  0  0  0  0  0  0  0  0  0  0  0
    7.3793   -2.2805    0.0000 O   0  0  0  0  0  0  0  0  0  0  0  0
    2.3644    1.4606    0.0000 O   0  0  0  0  0  0  0  0  0  0  0  0
    3.7934    2.2856    0.0000 O   0  0  0  0  0  0  0  0  0  0  0  0
    8.8492    0.2430    0.0000 O   0  0  0  0  0  0  0  0  0  0  0  0
    5.2223   -0.1894    0.0000 C   0  0  0  0  0  0  0  0  0  0  0  0
    5.2223   -1.0144    0.0000 C   0  0  0  0  0  0  0  0  0  0  0  0
    4.5079    0.2231    0.0000 C   0  0  0  0  0  0  0  0  0  0  0  0
    6.6513   -1.0144    0.0000 C   0  0  0  0  0  0  0  0  0  0  0  0
    5.9369   -1.4269    0.0000 C   0  0  0  0  0  0  0  0  0  0  0  0
    6.6513   -0.1894    0.0000 C   0  0  0  0  0  0  0  0  0  0  0  0
    4.5079    1.0481    0.0000 C   0  0  0  0  0  0  0  0  0  0  0  0
    3.7934   -0.1894    0.0000 C   0  0  0  0  0  0  0  0  0  0  0  0
    7.3888   -1.4555    0.0000 C   0  0  0  0  0  0  0  0  0  0  0  0
    7.3888    0.2517    0.0000 C   0  0  0  0  0  0  0  0  0  0  0  0
    3.7934    1.4606    0.0000 C   0  0  0  0  0  0  0  0  0  0  0  0
    8.1363   -1.0316    0.0000 C   0  0  0  0  0  0  0  0  0  0  0  0
    8.1363   -0.1723    0.0000 C   0  0  0  0  0  0  0  0  0  0  0  0
    3.0790    0.2231    0.0000 C   0  0  0  0  0  0  0  0  0  0  0  0
    3.0790    1.0481    0.0000 C   0  0  0  0  0  0  0  0  0  0  0  0
    1.6500    1.0481    0.0000 C   0  0  0  0  0  0  0  0  0  0  0  0
  1  7  1  0
  1 12  1  0
  2 11  2  0
  3 15  1  0
  4 21  1  0
  4 22  1  0
  5 17  1  0
  6 19  1  0
  7  8  1  0
  7  9  1  1
  8 11  1  0
  9 13  2  0
  9 14  1  0
 10 11  1  0
 10 12  2  0
 10 15  1  0
 12 16  1  0
 13 17  1  0
 14 20  2  0
 15 18  2  0
 16 19  2  0
 17 21  2  0
 18 19  1  0
 20 21  1  0
M  END
$$$$
