1224
     RDKit          2D

 27 30  0  0  0  0  0  0  0  0999 V2000
    4.0279   -4.2678    0.0000 S   0  0  0  0  0  0  0  0  0  0  0  0
    2.2907    1.9368    0.0000 O   0  0  0  0  0  0  0  0  0  0  0  0
    2.8621    4.0431    0.0000 O   0  0  0  0  0  0  0  0  0  0  0  0
    2.5418   -0.2312    0.0000 N   0  0  0  0  0  0  0  0  0  0  0  0
    3.2576   -1.7175    0.0000 N   0  0  0  0  0  0  0  0  0  0  0  0
    4.4403   -2.4607    0.0000 N   0  0  0  0  0  0  0  0  0  0  0  0
    2.0772   -0.9126    0.0000 C   0  0  0  0  0  0  0  0  0  0  0  0
    3.3643   -0.2928    0.0000 C   0  0  0  0  0  0  0  0  0  0  0  0
    2.4349   -1.6558    0.0000 C   0  0  0  0  0  0  0  0  0  0  0  0
    3.7223   -1.0360    0.0000 C   0  0  0  0  0  0  0  0  0  0  0  0
    2.1839    0.5120    0.0000 C   0  0  0  0  0  0  0  0  0  0  0  0
    3.6154   -2.4607    0.0000 C   0  0  0  0  0  0  0  0  0  0  0  0
    2.6485    1.1936    0.0000 C   0  0  0  0  0  0  0  0  0  0  0  0
    3.1012   -3.1056    0.0000 C   0  0  0  0  0  0  0  0  0  0  0  0
    3.2847   -3.9098    0.0000 C   0  0  0  0  0  0  0  0  0  0  0  0
    2.2841   -2.8397    0.0000 C   0  0  0  0  0  0  0  0  0  0  0  0
    4.9547   -3.1056    0.0000 C   0  0  0  0  0  0  0  0  0  0  0  0
    4.7711   -3.9099    0.0000 C   0  0  0  0  0  0  0  0  0  0  0  0
    2.6639   -4.5038    0.0000 C   0  0  0  0  0  0  0  0  0  0  0  0
    2.7554    2.6183    0.0000 C   0  0  0  0  0  0  0  0  0  0  0  0
    1.6497   -3.4193    0.0000 C   0  0  0  0  0  0  0  0  0  0  0  0
    1.8410   -4.2570    0.0000 C   0  0  0  0  0  0  0  0  0  0  0  0
    5.7717   -2.8397    0.0000 C   0  0  0  0  0  0  0  0  0  0  0  0
    5.3918   -4.5038    0.0000 C   0  0  0  0  0  0  0  0  0  0  0  0
    2.3974    3.3615    0.0000 C   0  0  0  0  0  0  0  0  0  0  0  0
    6.4060   -3.4193    0.0000 C   0  0  0  0  0  0  0  0  0  0  0  0
    6.2148   -4.2570    0.0000 C   0  0  0  0  0  0  0  0  0  0  0  0
  1 15  1  0
  1 18  1  0
  2 13  1  0
  2 20  1  0
  3 25  1  0
  4  7  1  0
  4  8  1  0
  4 11  1  0
  5  9  1  0
  5 10  1  0
  5 12  1  0
  6 12  2  0
  6 17  1  0
  7  9  1  0
  8 10  1  0
 11 13  1  0
 12 14  1  0
 14 15  2  0
 14 16  1  0
 15 19  1  0
 16 21  2  0
 17 18  2  0
 17 23  1  0
 18 24  1  0
 19 22  2  0
 20 25  1  0
 21 22  1  0
 23 26  2  0
 24 27  2  0
 26 27  1  0
M  END
$$$$
