1081
     RDKit          2D

 34 37  0  0  0  0  0  0  0  0999 V2000
    3.6020    2.8717    0.0000 O   0  0  0  0  0  0  0  0  0  0  0  0
    4.5704    3.6842    0.0000 O   0  0  0  0  0  0  0  0  0  0  0  0
    4.8396    0.5072    0.0000 N   0  0  0  0  0  0  0  0  0  0  0  0
    5.7751   -1.5553    0.0000 N   0  0  0  0  0  0  0  0  0  0  0  0
    4.8396    2.1573    0.0000 C   0  0  0  0  0  0  0  0  0  0  0  0
    4.1251    1.7447    0.0000 C   0  0  0  0  0  0  0  0  0  0  0  0
    5.5541    1.7447    0.0000 C   0  0  0  0  0  0  0  0  0  0  0  0
    4.1251    0.9197    0.0000 C   0  0  0  0  0  0  0  0  0  0  0  0
    5.5541    0.9197    0.0000 C   0  0  0  0  0  0  0  0  0  0  0  0
    4.8396   -0.3178    0.0000 C   0  0  0  0  0  0  0  0  0  0  0  0
    5.4716    2.6876    0.0000 C   0  0  0  0  0  0  0  0  0  0  0  0
    4.4270    2.8717    0.0000 C   0  0  0  0  0  0  0  0  0  0  0  0
    4.1251   -0.7303    0.0000 C   0  0  0  0  0  0  0  0  0  0  0  0
    4.1251   -1.5553    0.0000 C   0  0  0  0  0  0  0  0  0  0  0  0
    5.3283    3.5001    0.0000 C   0  0  0  0  0  0  0  0  0  0  0  0
    6.2469    2.4054    0.0000 C   0  0  0  0  0  0  0  0  0  0  0  0
    3.3001   -1.5553    0.0000 C   0  0  0  0  0  0  0  0  0  0  0  0
    4.1251   -2.3803    0.0000 C   0  0  0  0  0  0  0  0  0  0  0  0
    5.9603    4.0304    0.0000 C   0  0  0  0  0  0  0  0  0  0  0  0
    6.8788    2.9357    0.0000 C   0  0  0  0  0  0  0  0  0  0  0  0
    4.9501   -1.5553    0.0000 C   0  0  0  0  0  0  0  0  0  0  0  0
    6.7356    3.7482    0.0000 C   0  0  0  0  0  0  0  0  0  0  0  0
    3.1895    3.5863    0.0000 C   0  0  0  0  0  0  0  0  0  0  0  0
    2.8876   -2.2698    0.0000 C   0  0  0  0  0  0  0  0  0  0  0  0
    4.8396   -2.7929    0.0000 C   0  0  0  0  0  0  0  0  0  0  0  0
    2.8876   -0.8409    0.0000 C   0  0  0  0  0  0  0  0  0  0  0  0
    3.4106   -2.7929    0.0000 C   0  0  0  0  0  0  0  0  0  0  0  0
    2.3645    3.5863    0.0000 C   0  0  0  0  0  0  0  0  0  0  0  0
    2.0625   -2.2698    0.0000 C   0  0  0  0  0  0  0  0  0  0  0  0
    4.8396   -3.6179    0.0000 C   0  0  0  0  0  0  0  0  0  0  0  0
    2.0625   -0.8409    0.0000 C   0  0  0  0  0  0  0  0  0  0  0  0
    3.4106   -3.6179    0.0000 C   0  0  0  0  0  0  0  0  0  0  0  0
    1.6500   -1.5553    0.0000 C   0  0  0  0  0  0  0  0  0  0  0  0
    4.1251   -4.0304    0.0000 C   0  0  0  0  0  0  0  0  0  0  0  0
  1 12  1  0
  1 23  1  0
  2 12  2  0
  3  8  1  0
  3  9  1  0
  3 10  1  0
  4 21  3  0
  5  6  1  0
  5  7  1  0
  5 11  1  0
  5 12  1  0
  6  8  1  0
  7  9  1  0
 10 13  1  0
 11 15  2  0
 11 16  1  0
 13 14  1  0
 14 17  1  0
 14 18  1  0
 14 21  1  0
 15 19  1  0
 16 20  2  0
 17 24  2  0
 17 26  1  0
 18 25  2  0
 18 27  1  0
 19 22  2  0
 20 22  1  0
 23 28  1  0
 24 29  1  0
 25 30  1  0
 26 31  2  0
 27 32  2  0
 29 33  2  0
 30 34  2  0
 31 33  1  0
 32 34  1  0
M  END
$$$$
