
     RDKit          2D

 14 15  0  0  0  0  0  0  0  0999 V2000
    0.3572    0.2061    0.0000 C   0  0  0  0  0  0  0  0  0  0  0  0
   -0.3573    0.6185    0.0000 C   0  0  0  0  0  0  0  0  0  0  0  0
    0.3572   -0.6184    0.0000 C   0  0  0  0  0  0  0  0  0  0  0  0
    1.0719    0.6185    0.0000 O   0  0  0  0  0  0  0  0  0  0  0  0
   -1.0719    0.2061    0.0000 C   0  0  0  0  0  0  0  0  0  0  0  0
   -0.3573    1.4430    0.0000 C   0  0  0  0  0  0  0  0  0  0  0  0
    1.0719   -1.0307    0.0000 N   0  0  0  0  0  0  0  0  0  0  0  0
   -0.3573   -1.0307    0.0000 C   0  0  0  0  0  0  0  0  0  0  0  0
    1.7866    0.2061    0.0000 C   0  0  0  0  0  0  0  0  0  0  0  0
   -1.7866    0.6185    0.0000 C   0  0  0  0  0  0  0  0  0  0  0  0
   -1.0719    1.8553    0.0000 C   0  0  0  0  0  0  0  0  0  0  0  0
    1.7866   -0.6184    0.0000 C   0  0  0  0  0  0  0  0  0  0  0  0
    1.0719   -1.8553    0.0000 C   0  0  0  0  0  0  0  0  0  0  0  0
   -1.7866    1.4430    0.0000 C   0  0  0  0  0  0  0  0  0  0  0  0
  1  2  1  6
  1  3  1  0
  1  4  1  0
  2  5  2  0
  2  6  1  0
  3  7  1  0
  3  8  1  1
  4  9  1  0
  5 10  1  0
  6 11  2  0
  7 12  1  0
  7 13  1  0
 10 14  2  0
  9 12  1  0
 11 14  1  0
M  END
$$$$
