
     RDKit          2D

 24 27  0  0  0  0  0  0  0  0999 V2000
    7.3027   -1.4662    0.0000 C   0  0  0  0  0  0  0  0  0  0  0  0
    6.5882   -1.0537    0.0000 O   0  0  0  0  0  0  0  0  0  0  0  0
    6.5882   -0.2287    0.0000 C   0  0  0  0  0  0  0  0  0  0  0  0
    5.8738    0.1838    0.0000 C   0  0  0  0  0  0  0  0  0  0  0  0
    5.8738    1.0088    0.0000 C   0  0  0  0  0  0  0  0  0  0  0  0
    5.1593    1.4213    0.0000 C   0  0  0  0  0  0  0  0  0  0  0  0
    5.1593    2.2463    0.0000 C   0  0  0  0  0  0  0  0  0  0  0  0
    5.8738    2.6588    0.0000 C   0  0  0  0  0  0  0  0  0  0  0  0
    6.5882    2.2463    0.0000 N   0  0  0  0  0  0  0  0  0  0  0  0
    6.5882    1.4213    0.0000 C   0  0  0  0  0  0  0  0  0  0  0  0
    7.3027    1.0088    0.0000 C   0  0  0  0  0  0  0  0  0  0  0  0
    7.3027    0.1838    0.0000 C   0  0  0  0  0  0  0  0  0  0  0  0
    4.4448    1.0088    0.0000 C   0  0  0  0  0  0  0  0  0  0  0  0
    4.4448    0.1838    0.0000 C   0  0  0  0  0  0  0  0  0  0  0  0
    4.0926   -0.5100    0.0000 C   0  0  0  0  0  0  0  0  0  0  0  0
    4.4673   -1.2281    0.0000 C   0  0  0  0  0  0  0  0  0  0  0  0
    3.8832   -1.9087    0.0000 C   0  0  0  0  0  0  0  0  0  0  0  0
    4.0659   -1.2813    0.0000 C   0  0  0  0  0  0  0  0  0  0  0  0
    4.8182   -0.5518    0.0000 N   0  0  0  0  0  0  0  0  0  0  0  0
    5.6996   -0.7892    0.0000 C   0  0  0  0  0  0  0  0  0  0  0  0
    5.3165   -1.4489    0.0000 C   0  0  0  0  0  0  0  0  0  0  0  0
    5.6340   -2.2104    0.0000 C   0  0  0  0  0  0  0  0  0  0  0  0
    6.4522   -2.3161    0.0000 C   0  0  0  0  0  0  0  0  0  0  0  0
    3.7303    1.4213    0.0000 O   0  0  0  0  0  0  0  0  0  0  0  0
  1  2  1  0
  2  3  1  0
  3  4  2  0
  4  5  1  0
  5  6  2  0
  6  7  1  0
  7  8  2  0
  8  9  1  0
  9 10  2  0
  5 10  1  0
 10 11  1  0
 11 12  2  0
  3 12  1  0
  6 13  1  0
 13 14  1  0
 14 15  1  0
 15 16  1  0
 16 17  1  0
 17 18  1  0
 18 19  1  0
 14 19  1  0
 19 20  1  0
 20 21  1  0
 16 21  1  0
 21 22  1  0
 22 23  2  3
 13 24  1  0
M  END
$$$$
