 
     RDKit          2D

 44 47  0  0  1  0  0  0  0  0999 V2000
   14.8883   -8.3120    0.0000 C   0  0  0  0  0  0  0  0  0  0  0  0
   14.8883   -9.1437    0.0000 C   0  0  0  0  0  0  0  0  0  0  0  0
   14.1700   -7.8998    0.0000 C   0  0  0  0  0  0  0  0  0  0  0  0
   15.6105   -7.8885    0.0000 O   0  0  0  0  0  0  0  0  0  0  0  0
   15.6143   -9.5596    0.0000 C   0  0  0  0  0  0  0  0  0  0  0  0
   14.1700   -9.5634    0.0000 C   0  0  0  0  0  0  0  0  0  0  0  0
   13.4554   -8.3120    0.0000 C   0  0  0  0  0  0  0  0  0  0  0  0
   14.1662   -7.0794    0.0000 C   0  0  0  0  0  0  0  0  0  0  0  0
   16.3782   -8.3044    0.0000 C   0  0  0  0  0  0  0  0  0  0  0  0
   16.3440   -9.1475    0.0000 C   0  0  0  0  0  0  0  0  0  0  0  0
   15.6143  -10.3839    0.0000 O   0  0  0  0  0  0  0  0  0  0  0  0
   13.4554   -9.1437    0.0000 C   0  0  0  0  0  0  0  0  0  0  0  0
   12.7445   -7.9037    0.0000 O   0  0  0  0  0  0  0  0  0  0  0  0
   17.0472   -7.8923    0.0000 O   0  0  0  0  0  0  0  0  0  0  0  0
   17.3044   -9.5067    0.0000 N   0  0  0  0  0  0  0  0  0  0  0  0
   12.0339   -8.3157    0.0000 C   0  0  0  0  0  0  0  0  0  0  0  0
   18.0189   -9.0947    0.0000 C   0  0  0  0  0  0  0  0  0  0  0  0
   12.0339   -9.1475    0.0000 C   0  0  0  0  0  0  0  0  0  0  0  0
   11.3116   -7.9037    0.0000 O   0  0  0  0  0  0  0  0  0  0  0  0
   18.7297   -9.5067    0.0000 C   0  0  0  0  0  0  0  0  0  0  0  0
   18.0189   -8.2742    0.0000 O   0  0  0  0  0  0  0  0  0  0  0  0
   11.3116   -9.5672    0.0000 C   0  0  0  0  0  0  0  0  0  0  0  0
   12.7484   -9.5559    0.0000 O   0  0  0  0  0  0  0  0  0  0  0  0
   10.6009   -8.3157    0.0000 C   0  0  0  0  0  0  0  0  0  0  0  0
   18.7335  -10.3308    0.0000 C   0  0  0  0  0  0  0  0  0  0  0  0
   19.4367   -9.0984    0.0000 C   0  0  0  0  0  0  0  0  0  0  0  0
   10.6009   -9.1475    0.0000 C   0  0  0  0  0  0  0  0  0  0  0  0
   11.3116  -10.3914    0.0000 O   0  0  0  0  0  0  0  0  0  0  0  0
   10.1094   -7.4612    0.0000 C   0  0  0  0  0  0  0  0  0  0  0  0
    9.7502   -8.4821    0.0000 C   0  0  0  0  0  0  0  0  0  0  0  0
   19.4405  -10.7430    0.0000 C   0  0  0  0  0  0  0  0  0  0  0  0
   20.1513   -9.5029    0.0000 C   0  0  0  0  0  0  0  0  0  0  0  0
    9.8863   -9.5559    0.0000 O   0  0  0  0  0  0  0  0  0  0  0  0
   10.5971  -10.7997    0.0000 C   0  0  0  0  0  0  0  0  0  0  0  0
   20.1551  -10.3271    0.0000 C   0  0  0  0  0  0  0  0  0  0  0  0
   19.4405  -11.5672    0.0000 C   0  0  0  0  0  0  0  0  0  0  0  0
    9.0469   -9.5596    0.0000 C   0  0  0  0  0  0  0  0  0  0  0  0
   10.5934  -11.6202    0.0000 N   0  0  0  0  0  0  0  0  0  0  0  0
    9.8863  -10.3877    0.0000 O   0  0  0  0  0  0  0  0  0  0  0  0
   20.8658  -10.7355    0.0000 O   0  0  0  0  0  0  0  0  0  0  0  0
   20.1551  -11.9794    0.0000 C   0  0  0  0  0  0  0  0  0  0  0  0
   20.1551  -12.7998    0.0000 C   0  0  0  0  0  0  0  0  0  0  0  0
   20.8658  -13.2119    0.0000 C   0  0  0  0  0  0  0  0  0  0  0  0
   19.4405  -13.2119    0.0000 C   0  0  0  0  0  0  0  0  0  0  0  0
  1  2  1  0
  1  3  2  0
  1  4  1  0
  2  5  1  0
  2  6  2  0
  3  7  1  0
  3  8  1  0
  4  9  1  0
  5 10  2  0
  5 11  1  0
  6 12  1  0
  7 13  1  0
  9 14  2  0
 10 15  1  0
 16 13  1  1
 15 17  1  0
 16 18  1  0
 16 19  1  0
 17 20  1  0
 17 21  2  0
 18 22  1  0
 18 23  1  6
 19 24  1  0
 20 25  2  0
 20 26  1  0
 22 27  1  0
 22 28  1  6
 24 29  1  0
 24 30  1  0
 25 31  1  0
 26 32  2  0
 27 33  1  1
 28 34  1  0
 31 35  2  0
 31 36  1  0
 33 37  1  0
 34 38  1  0
 34 39  2  0
 35 40  1  0
 36 41  1  0
 41 42  2  0
 42 43  1  0
 42 44  1  0
  7 12  2  0
  9 10  1  0
 24 27  1  0
 32 35  1  0
M  END
$$$$
