
     RDKit          2D

 14 15  0  0  0  0  0  0  0  0999 V2000
    4.2365    3.2166    0.0000 O   0  0  0  0  0  0  0  0  0  0  0  0
    6.3560    3.4715    0.0000 N   0  0  0  0  0  0  0  0  0  0  0  0
    5.6886    2.9866    0.0000 N   0  0  0  0  0  0  0  0  0  0  0  0
    6.1011    4.2561    0.0000 C   0  0  0  0  0  0  0  0  0  0  0  0
    5.6886    2.1615    0.0000 C   0  0  0  0  0  0  0  0  0  0  0  0
    5.0211    3.4715    0.0000 C   0  0  0  0  0  0  0  0  0  0  0  0
    5.2761    4.2561    0.0000 C   0  0  0  0  0  0  0  0  0  0  0  0
    7.1407    3.2166    0.0000 C   0  0  0  0  0  0  0  0  0  0  0  0
    6.5860    4.9236    0.0000 C   0  0  0  0  0  0  0  0  0  0  0  0
    6.4030    1.7490    0.0000 C   0  0  0  0  0  0  0  0  0  0  0  0
    4.9741    1.7490    0.0000 C   0  0  0  0  0  0  0  0  0  0  0  0
    6.4030    0.9240    0.0000 C   0  0  0  0  0  0  0  0  0  0  0  0
    4.9741    0.9240    0.0000 C   0  0  0  0  0  0  0  0  0  0  0  0
    5.6886    0.5115    0.0000 C   0  0  0  0  0  0  0  0  0  0  0  0
  1  6  2  0
  2  3  1  0
  2  4  1  0
  2  8  1  0
  3  5  1  0
  3  6  1  0
  4  7  2  0
  4  9  1  0
  5 10  2  0
  5 11  1  0
  6  7  1  0
 10 12  1  0
 11 13  2  0
 12 14  2  0
 13 14  1  0
M  END
$$$$
