
     RDKit          2D

 31 34  0  0  0  0  0  0  0  0999 V2000
    1.4289    2.4267    0.0000 C   0  0  0  0  0  0  0  0  0  0  0  0
    0.7144    2.0142    0.0000 C   0  0  0  0  0  0  0  0  0  0  0  0
    0.7144    1.1892    0.0000 C   0  0  0  0  0  0  0  0  0  0  0  0
    0.0000    0.7767    0.0000 N   0  0  0  0  0  0  0  0  0  0  0  0
   -0.7144    1.1892    0.0000 C   0  0  0  0  0  0  0  0  0  0  0  0
   -0.7144    2.0142    0.0000 C   0  0  0  0  0  0  0  0  0  0  0  0
    0.0000    2.4267    0.0000 C   0  0  0  0  0  0  0  0  0  0  0  0
    0.3873    3.1551    0.0000 C   0  0  0  0  0  0  0  0  0  0  0  0
    0.4448    3.9781    0.0000 O   0  0  0  0  0  0  0  0  0  0  0  0
    1.2118    3.1839    0.0000 O   0  0  0  0  0  0  0  0  0  0  0  0
   -0.3873    3.1551    0.0000 C   0  0  0  0  0  0  0  0  0  0  0  0
   -1.2118    3.1839    0.0000 C   0  0  0  0  0  0  0  0  0  0  0  0
   -1.5991    3.9123    0.0000 C   0  0  0  0  0  0  0  0  0  0  0  0
   -1.1619    4.6120    0.0000 C   0  0  0  0  0  0  0  0  0  0  0  0
   -0.3374    4.5832    0.0000 C   0  0  0  0  0  0  0  0  0  0  0  0
    0.0498    3.8548    0.0000 C   0  0  0  0  0  0  0  0  0  0  0  0
    0.0000   -0.0482    0.0000 C   0  0  0  0  0  0  0  0  0  0  0  0
   -0.7144   -0.4607    0.0000 C   0  0  0  0  0  0  0  0  0  0  0  0
   -0.7144   -1.2857    0.0000 C   0  0  0  0  0  0  0  0  0  0  0  0
    0.0000   -1.6982    0.0000 C   0  0  0  0  0  0  0  0  0  0  0  0
    0.7144   -1.2857    0.0000 C   0  0  0  0  0  0  0  0  0  0  0  0
    0.7144   -0.4607    0.0000 C   0  0  0  0  0  0  0  0  0  0  0  0
   -0.3873   -2.4267    0.0000 C   0  0  0  0  0  0  0  0  0  0  0  0
   -0.7746   -3.1551    0.0000 N   0  0  0  0  0  0  0  0  0  0  0  0
    0.3873   -2.4267    0.0000 C   0  0  0  0  0  0  0  0  0  0  0  0
    1.2118   -2.4554    0.0000 C   0  0  0  0  0  0  0  0  0  0  0  0
    1.5991   -3.1839    0.0000 C   0  0  0  0  0  0  0  0  0  0  0  0
    1.1619   -3.8835    0.0000 C   0  0  0  0  0  0  0  0  0  0  0  0
    1.5492   -4.6120    0.0000 F   0  0  0  0  0  0  0  0  0  0  0  0
    0.3374   -3.8548    0.0000 C   0  0  0  0  0  0  0  0  0  0  0  0
   -0.0498   -3.1264    0.0000 C   0  0  0  0  0  0  0  0  0  0  0  0
  2  1  1  6
  2  3  1  0
  3  4  1  0
  4  5  1  0
  5  6  1  0
  6  7  1  0
  2  7  1  0
  7  8  1  1
  8  9  2  0
  8 10  1  0
  7 11  1  0
 11 12  2  0
 12 13  1  0
 13 14  2  0
 14 15  1  0
 15 16  2  0
 11 16  1  0
 17  4  1  6
 17 18  1  0
 18 19  1  0
 19 20  1  0
 20 21  1  0
 21 22  1  0
 17 22  1  0
 20 23  1  1
 23 24  3  0
 20 25  1  0
 25 26  2  0
 26 27  1  0
 27 28  2  0
 28 29  1  0
 28 30  1  0
 30 31  2  0
 25 31  1  0
M  END
$$$$
