
     RDKit          2D

 26 30  0  0  0  0  0  0  0  0999 V2000
    0.8111    0.6467    0.0000 C   0  0  0  0  0  0  0  0  0  0  0  0
   -0.3203   -0.0281    0.0000 C   0  0  0  0  0  0  0  0  0  0  0  0
    5.1790   -4.3987    0.0000 C   0  0  0  0  0  0  0  0  0  0  0  0
    5.3852   -1.3867    0.0000 C   0  0  0  0  0  0  0  0  0  0  0  0
    5.0083   -3.5916    0.0000 C   0  0  0  0  0  0  0  0  0  0  0  0
    4.5780   -1.5575    0.0000 C   0  0  0  0  0  0  0  0  0  0  0  0
    4.4641   -4.8105    0.0000 C   0  0  0  0  0  0  0  0  0  0  0  0
    5.7969   -2.1016    0.0000 C   0  0  0  0  0  0  0  0  0  0  0  0
    1.9893   -0.5417    0.0000 C   0  0  0  0  0  0  0  0  0  0  0  0
    1.6113   -0.9304    0.0000 C   0  0  0  0  0  0  0  0  0  0  0  0
    2.1275   -1.3591    0.0000 C   0  0  0  0  0  0  0  0  0  0  0  0
    1.0605   -0.5572    0.0000 C   0  0  0  0  0  0  0  0  0  0  0  0
    0.6396   -0.9304    0.0000 C   0  0  0  0  0  0  0  0  0  0  0  0
    4.1879   -3.5045    0.0000 C   0  0  0  0  0  0  0  0  0  0  0  0
    4.4910   -2.3779    0.0000 C   0  0  0  0  0  0  0  0  0  0  0  0
    0.7400   -1.2658    0.0000 C   0  0  0  0  0  0  0  0  0  0  0  0
    0.0349   -1.6942    0.0000 C   0  0  0  0  0  0  0  0  0  0  0  0
    3.3643   -2.0748    0.0000 C   0  0  0  0  0  0  0  0  0  0  0  0
    3.7761   -2.7897    0.0000 C   0  0  0  0  0  0  0  0  0  0  0  0
    0.4999   -0.1173    0.0000 N   0  0  0  0  0  0  0  0  0  0  0  0
    3.7775   -1.3607    0.0000 O   0  0  0  0  0  0  0  0  0  0  0  0
    3.0612   -3.2015    0.0000 O   0  0  0  0  0  0  0  0  0  0  0  0
    2.5393   -2.0740    0.0000 O   0  0  0  0  0  0  0  0  0  0  0  0
    0.7585   -2.0906    0.0000 O   0  0  0  0  0  0  0  0  0  0  0  0
    3.8516   -4.2579    0.0000 S   0  0  0  0  0  0  0  0  0  0  0  0
    5.2443   -2.7142    0.0000 S   0  0  0  0  0  0  0  0  0  0  0  0
  5  3  1  0
  6  4  1  0
  7  3  2  0
  8  4  2  0
 11  9  1  0
 11 10  1  0
 12  9  1  1
 13 10  1  6
 14  5  2  0
 15  6  2  0
 16 12  1  0
 17 13  1  0
 17 16  1  0
 19 14  1  0
 19 15  1  0
 19 18  1  0
 20  1  1  0
 20  2  1  0
 20 12  1  0
 20 13  1  0
 21 18  2  0
 22 19  1  0
 11 23  1  6
 23 18  1  0
 16 24  1  6
 17 24  1  6
 25  7  1  0
 25 14  1  0
 26  8  1  0
 26 15  1  0
M  CHG  1  20   1
M  END
$$$$
