1177
     RDKit          2D

 36 40  0  0  1  0  0  0  0  0999 V2000
    4.9340    0.4160    0.0000 O   0  0  0  0  0  0  0  0  0  0  0  0
    3.5053    0.4325    0.0000 O   0  0  0  0  0  0  0  0  0  0  0  0
    3.7673   -2.4080    0.0000 O   0  0  0  0  0  0  0  0  0  0  0  0
    2.0957    2.0987    0.0000 O   0  0  0  0  0  0  0  0  0  0  0  0
    6.3763    0.3875    0.0000 O   0  0  0  0  0  0  0  0  0  0  0  0
    6.3763   -2.9122    0.0000 O   0  0  0  0  0  0  0  0  0  0  0  0
    2.9369   -0.9824    0.0000 O   0  0  0  0  0  0  0  0  0  0  0  0
    7.8185    0.4160    0.0000 O   0  0  0  0  0  0  0  0  0  0  0  0
    7.8185   -2.9407    0.0000 O   0  0  0  0  0  0  0  0  0  0  0  0
    3.5339    2.9071    0.0000 N   0  0  0  0  0  0  0  0  0  0  0  0
    4.9245   -0.4089    0.0000 C   0  0  0  0  0  0  0  0  0  0  0  0
    4.1770   -1.6920    0.0000 C   0  0  0  0  0  0  0  0  0  0  0  0
    4.1770   -0.8327    0.0000 C   0  0  0  0  0  0  0  0  0  0  0  0
    4.9245   -2.1159    0.0000 C   0  0  0  0  0  0  0  0  0  0  0  0
    5.6618   -0.8499    0.0000 C   0  0  0  0  0  0  0  0  0  0  0  0
    5.6618   -1.6749    0.0000 C   0  0  0  0  0  0  0  0  0  0  0  0
    4.2243    0.8367    0.0000 C   0  0  0  0  0  0  0  0  0  0  0  0
    4.2339    1.6616    0.0000 C   0  0  0  0  0  0  0  0  0  0  0  0
    3.5244    2.0822    0.0000 C   0  0  0  0  0  0  0  0  0  0  0  0
    2.8053    1.6781    0.0000 C   0  0  0  0  0  0  0  0  0  0  0  0
    2.7957    0.8532    0.0000 C   0  0  0  0  0  0  0  0  0  0  0  0
    6.3763   -0.4375    0.0000 C   0  0  0  0  0  0  0  0  0  0  0  0
    3.3521   -1.6952    0.0000 C   0  0  0  0  0  0  0  0  0  0  0  0
    6.3763   -2.0873    0.0000 C   0  0  0  0  0  0  0  0  0  0  0  0
    7.0907   -0.8499    0.0000 C   0  0  0  0  0  0  0  0  0  0  0  0
    7.0907   -1.6749    0.0000 C   0  0  0  0  0  0  0  0  0  0  0  0
    2.0766    0.4490    0.0000 C   0  0  0  0  0  0  0  0  0  0  0  0
    2.9423   -2.4111    0.0000 C   0  0  0  0  0  0  0  0  0  0  0  0
    7.8280   -0.4089    0.0000 C   0  0  0  0  0  0  0  0  0  0  0  0
    7.8280   -2.1159    0.0000 C   0  0  0  0  0  0  0  0  0  0  0  0
    8.5756   -0.8327    0.0000 C   0  0  0  0  0  0  0  0  0  0  0  0
    8.5756   -1.6920    0.0000 C   0  0  0  0  0  0  0  0  0  0  0  0
    9.3436   -0.3734    0.0000 C   0  0  0  0  0  0  0  0  0  0  0  0
    9.3436   -2.1514    0.0000 C   0  0  0  0  0  0  0  0  0  0  0  0
   10.1221   -0.8148    0.0000 C   0  0  0  0  0  0  0  0  0  0  0  0
   10.1221   -1.7099    0.0000 C   0  0  0  0  0  0  0  0  0  0  0  0
 11  1  1  6
 17  1  1  6
  2 17  1  0
  2 21  1  0
 12  3  1  6
 20  4  1  1
  5 22  1  0
  6 24  1  0
  7 23  2  0
  8 29  2  0
  9 30  2  0
 19 10  1  1
 11 13  1  0
 11 15  1  0
 12 13  1  0
 12 14  1  0
 12 23  1  0
 14 16  1  0
 15 16  2  0
 15 22  1  0
 16 24  1  0
 17 18  1  0
 18 19  1  0
 19 20  1  0
 20 21  1  0
 21 27  1  1
 22 25  2  0
 23 28  1  0
 24 26  2  0
 25 26  1  0
 25 29  1  0
 26 30  1  0
 29 31  1  0
 30 32  1  0
 31 32  2  0
 31 33  1  0
 32 34  1  0
 33 35  2  0
 34 36  2  0
 35 36  1  0
M  END
$$$$
