
     RDKit          2D

 26 28  0  0  0  0  0  0  0  0999 V2000
    6.4018   -2.4837    0.0000 C   0  0  0  0  0  0  0  0  0  0  0  0
    7.1061   -2.9103    0.0000 N   0  0  0  0  0  0  0  0  0  0  0  0
    7.0807   -3.7185    0.0000 C   0  0  0  0  0  0  0  0  0  0  0  0
    5.6804   -2.8704    0.0000 C   0  0  0  0  0  0  0  0  0  0  0  0
    6.4035   -1.6380    0.0000 O   0  0  0  0  0  0  0  0  0  0  0  0
    7.7936   -4.1502    0.0000 C   0  0  0  0  0  0  0  0  0  0  0  0
    8.4980   -3.7533    0.0000 C   0  0  0  0  0  0  0  0  0  0  0  0
    5.6719   -3.6889    0.0000 C   0  0  0  0  0  0  0  0  0  0  0  0
    4.9675   -2.4386    0.0000 C   0  0  0  0  0  0  0  0  0  0  0  0
    4.2324   -3.6715    0.0000 C   0  0  0  0  0  0  0  0  0  0  0  0
    4.2546   -2.8305    0.0000 C   0  0  0  0  0  0  0  0  0  0  0  0
    4.9504   -4.0948    0.0000 C   0  0  0  0  0  0  0  0  0  0  0  0
    3.4990   -4.0973    0.0000 O   0  0  0  0  0  0  0  0  0  0  0  0
    6.3762   -4.1154    0.0000 C   0  0  0  0  0  0  0  0  0  0  0  0
    7.7681   -4.9585    0.0000 C   0  0  0  0  0  0  0  0  0  0  0  0
    3.4972   -4.9237    0.0000 C   0  0  0  0  0  0  0  0  0  0  0  0
    6.3337   -4.9326    0.0000 C   0  0  0  0  0  0  0  0  0  0  0  0
    7.0551   -5.3695    0.0000 C   0  0  0  0  0  0  0  0  0  0  0  0
    8.5017   -2.9199    0.0000 C   0  0  0  0  0  0  0  0  0  0  0  0
    9.9239   -2.9001    0.0000 N   0  0  0  0  0  0  0  0  0  0  0  0
    9.2094   -2.5032    0.0000 C   0  0  0  0  0  0  0  0  0  0  0  0
    9.9239   -3.7533    0.0000 C   0  0  0  0  0  0  0  0  0  0  0  0
   10.6349   -2.4834    0.0000 C   0  0  0  0  0  0  0  0  0  0  0  0
    9.2094   -1.6697    0.0000 C   0  0  0  0  0  0  0  0  0  0  0  0
   10.6349   -1.6499    0.0000 C   0  0  0  0  0  0  0  0  0  0  0  0
    9.9106   -1.2530    0.0000 C   0  0  0  0  0  0  0  0  0  0  0  0
  2  1  1  0
  3  2  1  0
  4  1  1  0
  5  1  2  0
  6  3  1  0
  7  6  1  0
  8  4  2  0
  9  4  1  0
 10 11  1  0
 11  9  2  0
 12  8  1  0
 13 10  1  0
 14  3  2  0
 15  6  2  0
 16 13  1  0
 17 14  1  0
 18 17  2  0
 12 10  2  0
 18 15  1  0
  7 19  1  0
 20 21  1  0
 21 19  1  0
 22 20  1  0
 23 20  1  0
 24 21  1  0
 25 26  1  0
 26 24  1  0
 25 23  1  0
M  END
$$$$
