
     RDKit          2D

 21 23  0  0  0  0  0  0  0  0999 V2000
    9.0291  -10.1076    0.0000 C   0  0  0  0  0  0  0  0  0  0  0  0
    8.3146  -10.5201    0.0000 C   0  0  0  0  0  0  0  0  0  0  0  0
    8.3146  -11.3452    0.0000 C   0  0  0  0  0  0  0  0  0  0  0  0
    9.0291  -11.7577    0.0000 C   0  0  0  0  0  0  0  0  0  0  0  0
    9.7436  -11.3452    0.0000 C   0  0  0  0  0  0  0  0  0  0  0  0
    9.7436  -10.5201    0.0000 C   0  0  0  0  0  0  0  0  0  0  0  0
   10.4581  -10.1076    0.0000 C   0  0  0  0  0  0  0  0  0  0  0  0
   10.4581  -11.7577    0.0000 S   0  0  0  0  0  0  0  0  0  0  0  0
   11.1725  -11.3452    0.0000 C   0  0  0  0  0  0  0  0  0  0  0  0
   11.1725  -10.5201    0.0000 C   0  0  0  0  0  0  0  0  0  0  0  0
   11.8870  -10.1076    0.0000 C   0  0  0  0  0  0  0  0  0  0  0  0
   11.8870  -11.7577    0.0000 C   0  0  0  0  0  0  0  0  0  0  0  0
   12.6015  -11.3452    0.0000 C   0  0  0  0  0  0  0  0  0  0  0  0
   12.6015  -10.5201    0.0000 C   0  0  0  0  0  0  0  0  0  0  0  0
   13.3160  -10.1076    0.0000 Cl  0  0  0  0  0  0  0  0  0  0  0  0
   10.4581   -9.2826    0.0000 C   0  0  0  0  0  0  0  0  0  0  0  0
    9.7436   -8.8701    0.0000 C   0  0  0  0  0  0  0  0  0  0  0  0
    9.7436   -8.0451    0.0000 C   0  0  0  0  0  0  0  0  0  0  0  0
    9.0291   -7.6326    0.0000 N   0  0  0  0  0  0  0  0  0  0  0  0
    9.0291   -6.8076    0.0000 C   0  0  0  0  0  0  0  0  0  0  0  0
    8.3146   -8.0451    0.0000 C   0  0  0  0  0  0  0  0  0  0  0  0
  1  2  2  0
  1  6  1  0
  2  3  1  0
  3  4  2  0
  4  5  1  0
  7  6  1  0
  6  5  2  0
  5  8  1  0
  7 10  1  0
  8  9  1  0
 11 10  2  0
 10  9  1  0
  9 12  2  0
 11 14  1  0
 12 13  1  0
 13 14  2  0
 14 15  1  0
  7 16  2  3
 16 17  1  0
 17 18  1  0
 18 19  1  0
 19 20  1  0
 19 21  1  0
M  END
$$$$
