1429
     RDKit          2D

 24 26  0  0  1  0  0  0  0  0999 V2000
    5.1662    0.0000    0.0000 N   0  0  0  0  0  0  0  0  0  0  0  0
    7.6412    1.4290    0.0000 N   0  0  0  0  0  0  0  0  0  0  0  0
    4.3412    0.0000    0.0000 C   0  0  0  0  0  0  0  0  0  0  0  0
    3.8597   -0.6639    0.0000 C   0  0  0  0  0  0  0  0  0  0  0  0
    3.8597    0.6639    0.0000 C   0  0  0  0  0  0  0  0  0  0  0  0
    3.0791   -0.4125    0.0000 C   0  0  0  0  0  0  0  0  0  0  0  0
    3.0791    0.4125    0.0000 C   0  0  0  0  0  0  0  0  0  0  0  0
    5.5787    0.7145    0.0000 C   0  0  0  0  0  0  0  0  0  0  0  0
    6.4037    0.7145    0.0000 C   0  0  0  0  0  0  0  0  0  0  0  0
    5.5787   -0.7145    0.0000 C   0  0  0  0  0  0  0  0  0  0  0  0
    2.3645   -0.8250    0.0000 C   0  0  0  0  0  0  0  0  0  0  0  0
    2.3645    0.8250    0.0000 C   0  0  0  0  0  0  0  0  0  0  0  0
    6.8162    1.4290    0.0000 C   0  0  0  0  0  0  0  0  0  0  0  0
    1.6500   -0.4125    0.0000 C   0  0  0  0  0  0  0  0  0  0  0  0
    1.6500    0.4125    0.0000 C   0  0  0  0  0  0  0  0  0  0  0  0
    6.4037   -0.7145    0.0000 C   0  0  0  0  0  0  0  0  0  0  0  0
    5.1662   -1.4290    0.0000 C   0  0  0  0  0  0  0  0  0  0  0  0
    8.0537    0.7145    0.0000 C   0  0  0  0  0  0  0  0  0  0  0  0
    8.0537    2.1435    0.0000 C   0  0  0  0  0  0  0  0  0  0  0  0
    6.8162   -1.4290    0.0000 C   0  0  0  0  0  0  0  0  0  0  0  0
    5.5787   -2.1435    0.0000 C   0  0  0  0  0  0  0  0  0  0  0  0
    8.8788    0.7145    0.0000 C   0  0  0  0  0  0  0  0  0  0  0  0
    8.8788    2.1435    0.0000 C   0  0  0  0  0  0  0  0  0  0  0  0
    6.4037   -2.1435    0.0000 C   0  0  0  0  0  0  0  0  0  0  0  0
  1  3  1  0
  1  8  1  0
  1 10  1  0
  2 13  1  0
  2 18  1  0
  2 19  1  0
  3  4  1  0
  3  5  1  0
  4  6  1  0
  5  7  1  0
  6  7  2  0
  6 11  1  0
  7 12  1  0
  8  9  1  0
  9 13  1  0
 10 16  2  0
 10 17  1  0
 11 14  2  0
 12 15  2  0
 14 15  1  0
 16 20  1  0
 17 21  2  0
 18 22  1  0
 19 23  1  0
 20 24  2  0
 21 24  1  0
M  END
$$$$
