1422
     RDKit          2D

 14 15  0  0  0  0  0  0  0  0999 V2000
    2.3641    1.7282    0.0000 O   0  0  0  0  0  0  0  0  0  0  0  0
    1.6498   -1.9838    0.0000 O   0  0  0  0  0  0  0  0  0  0  0  0
    3.0786   -1.9838    0.0000 O   0  0  0  0  0  0  0  0  0  0  0  0
    3.8160    0.9319    0.0000 N   0  0  0  0  0  0  0  0  0  0  0  0
    2.3641   -1.5714    0.0000 N   0  0  0  0  0  0  0  0  0  0  0  0
    3.0786   -0.3341    0.0000 C   0  0  0  0  0  0  0  0  0  0  0  0
    3.0786    0.4908    0.0000 C   0  0  0  0  0  0  0  0  0  0  0  0
    2.3641   -0.7465    0.0000 C   0  0  0  0  0  0  0  0  0  0  0  0
    2.3641    0.9033    0.0000 C   0  0  0  0  0  0  0  0  0  0  0  0
    1.6498   -0.3341    0.0000 C   0  0  0  0  0  0  0  0  0  0  0  0
    3.8160   -0.7752    0.0000 C   0  0  0  0  0  0  0  0  0  0  0  0
    1.6498    0.4908    0.0000 C   0  0  0  0  0  0  0  0  0  0  0  0
    4.5634   -0.3513    0.0000 C   0  0  0  0  0  0  0  0  0  0  0  0
    4.5634    0.5079    0.0000 C   0  0  0  0  0  0  0  0  0  0  0  0
  1  9  1  0
  2  5  1  0
  3  5  2  0
  4  7  2  0
  4 14  1  0
  5  8  1  0
  6  7  1  0
  6  8  1  0
  6 11  2  0
  7  9  1  0
  8 10  2  0
  9 12  2  0
 10 12  1  0
 11 13  1  0
 13 14  2  0
M  CHG  2   2  -1   5   1
M  END
$$$$
