1200
     RDKit          2D

 43 49  0  0  1  0  0  0  0  0999 V2000
    7.7908   -3.2238    0.0000 Br  0  0  0  0  0  0  0  0  0  0  0  0
    2.4425    1.7524    0.0000 O   0  0  0  0  0  0  0  0  0  0  0  0
    1.9504    2.5868    0.0000 O   0  0  0  0  0  0  0  0  0  0  0  0
    4.5180    1.2848    0.0000 O   0  0  0  0  0  0  0  0  0  0  0  0
    4.2183    4.5118    0.0000 O   0  0  0  0  0  0  0  0  0  0  0  0
    2.7601   -0.7466    0.0000 O   0  0  0  0  0  0  0  0  0  0  0  0
    3.5921    2.4208    0.0000 N   0  0  0  0  0  0  0  0  0  0  0  0
    2.9151    3.9255    0.0000 N   0  0  0  0  0  0  0  0  0  0  0  0
    3.4698    0.4937    0.0000 N   0  0  0  0  0  0  0  0  0  0  0  0
    5.6742   -0.7468    0.0000 N   0  0  0  0  0  0  0  0  0  0  0  0
    6.6493   -4.1429    0.0000 N   0  0  0  0  0  0  0  0  0  0  0  0
    2.4328    3.2562    0.0000 C   0  0  0  0  0  0  0  0  0  0  0  0
    2.7712    2.5038    0.0000 C   0  0  0  0  0  0  0  0  0  0  0  0
    4.0744    3.0900    0.0000 C   0  0  0  0  0  0  0  0  0  0  0  0
    1.6525    3.5086    0.0000 C   0  0  0  0  0  0  0  0  0  0  0  0
    3.0546    1.2066    0.0000 C   0  0  0  0  0  0  0  0  0  0  0  0
    2.4288    4.5858    0.0000 C   0  0  0  0  0  0  0  0  0  0  0  0
    1.6500    4.3288    0.0000 C   0  0  0  0  0  0  0  0  0  0  0  0
    3.7636    1.6188    0.0000 C   0  0  0  0  0  0  0  0  0  0  0  0
    3.7360    3.8424    0.0000 C   0  0  0  0  0  0  0  0  0  0  0  0
    4.8952    3.0069    0.0000 C   0  0  0  0  0  0  0  0  0  0  0  0
    2.5049    0.5914    0.0000 C   0  0  0  0  0  0  0  0  0  0  0  0
    5.3776    3.6763    0.0000 C   0  0  0  0  0  0  0  0  0  0  0  0
    2.7629   -0.1924    0.0000 C   0  0  0  0  0  0  0  0  0  0  0  0
    1.6973    0.7598    0.0000 C   0  0  0  0  0  0  0  0  0  0  0  0
    3.4730   -0.3313    0.0000 C   0  0  0  0  0  0  0  0  0  0  0  0
    4.1891   -0.7411    0.0000 C   0  0  0  0  0  0  0  0  0  0  0  0
    5.6609   -1.6061    0.0000 C   0  0  0  0  0  0  0  0  0  0  0  0
    4.9333   -0.3114    0.0000 C   0  0  0  0  0  0  0  0  0  0  0  0
    6.1984    3.5932    0.0000 C   0  0  0  0  0  0  0  0  0  0  0  0
    5.0391    4.4287    0.0000 C   0  0  0  0  0  0  0  0  0  0  0  0
    4.9465   -2.0186    0.0000 C   0  0  0  0  0  0  0  0  0  0  0  0
    4.1957   -1.6004    0.0000 C   0  0  0  0  0  0  0  0  0  0  0  0
    6.3755   -2.0186    0.0000 C   0  0  0  0  0  0  0  0  0  0  0  0
    4.9465   -2.8436    0.0000 C   0  0  0  0  0  0  0  0  0  0  0  0
    6.3755   -2.8436    0.0000 C   0  0  0  0  0  0  0  0  0  0  0  0
    5.6609   -3.2561    0.0000 C   0  0  0  0  0  0  0  0  0  0  0  0
    6.3934   -0.3426    0.0000 C   0  0  0  0  0  0  0  0  0  0  0  0
    5.6742   -4.1153    0.0000 C   0  0  0  0  0  0  0  0  0  0  0  0
    6.9835   -3.3939    0.0000 C   0  0  0  0  0  0  0  0  0  0  0  0
    4.1957   -3.2618    0.0000 C   0  0  0  0  0  0  0  0  0  0  0  0
    4.9333   -4.5508    0.0000 C   0  0  0  0  0  0  0  0  0  0  0  0
    4.1891   -4.1211    0.0000 C   0  0  0  0  0  0  0  0  0  0  0  0
  1 40  1  0
  2 13  1  0
  2 16  1  0
 13  3  1  6
  4 19  2  0
  5 20  2  0
  6 26  2  0
  7 13  1  0
  7 14  1  0
  7 19  1  0
  8 12  1  0
  8 17  1  0
  8 20  1  0
 16  9  1  6
  9 26  1  0
 10 28  1  0
 10 29  1  0
 10 38  1  0
 11 39  1  0
 11 40  1  0
 12 13  1  0
 12 15  1  6
 14 20  1  0
 14 21  1  6
 15 18  1  0
 16 19  1  0
 16 22  1  0
 17 18  1  0
 21 23  1  0
 22 24  1  0
 22 25  1  0
 23 30  1  0
 23 31  1  0
 27 26  1  1
 27 29  1  0
 27 33  1  0
 28 32  1  0
 28 34  1  6
 32 33  2  0
 32 35  1  0
 34 36  1  0
 35 37  2  0
 35 41  1  0
 36 37  1  0
 36 40  2  0
 37 39  1  0
 39 42  2  0
 41 43  2  0
 42 43  1  0
M  END
$$$$
