
     RDKit          2D

 22 22  0  0  1  0  0  0  0  0999 V2000
   -1.7086    1.8448    0.0000 O   0  0  0  0  0  0  0  0  0  0  0  0
   -0.8881    1.7586    0.0000 C   0  0  0  0  0  0  0  0  0  0  0  0
   -0.3361    2.3716    0.0000 C   0  0  0  0  0  0  0  0  0  0  0  0
   -0.5076    3.1786    0.0000 O   0  0  0  0  0  0  0  0  0  0  0  0
    0.4176    2.0361    0.0000 C   0  0  0  0  0  0  0  0  0  0  0  0
    0.3314    1.2156    0.0000 O   0  0  0  0  0  0  0  0  0  0  0  0
   -0.4756    1.0441    0.0000 C   0  0  0  0  0  0  0  0  0  0  0  0
   -0.8112    0.2904    0.0000 C   0  0  0  0  0  0  0  0  0  0  0  0
   -1.6317    0.2042    0.0000 O   0  0  0  0  0  0  0  0  0  0  0  0
   -1.9672   -0.5495    0.0000 P   0  0  0  0  0  0  0  0  0  0  0  0
   -2.3028   -1.3032    0.0000 O   0  0  0  0  0  0  0  0  0  0  0  0
   -1.2135   -0.8851    0.0000 O   0  0  0  0  0  0  0  0  0  0  0  0
   -2.7209   -0.2139    0.0000 O   0  0  0  0  0  0  0  0  0  0  0  0
    1.1321    2.4486    0.0000 O   0  0  0  0  0  0  0  0  0  0  0  0
    1.8465    2.0361    0.0000 P   0  0  0  0  0  0  0  0  0  0  0  0
    1.4340    1.3216    0.0000 O   0  0  0  0  0  0  0  0  0  0  0  0
    2.2590    2.7506    0.0000 O   0  0  0  0  0  0  0  0  0  0  0  0
    2.5610    1.6236    0.0000 O   0  0  0  0  0  0  0  0  0  0  0  0
    3.2755    2.0361    0.0000 P   0  0  0  0  0  0  0  0  0  0  0  0
    3.9899    2.4486    0.0000 O   0  0  0  0  0  0  0  0  0  0  0  0
    3.6880    1.3216    0.0000 O   0  0  0  0  0  0  0  0  0  0  0  0
    2.8630    2.7506    0.0000 O   0  0  0  0  0  0  0  0  0  0  0  0
  2  1  1  1
  2  3  1  0
  3  4  1  1
  3  5  1  0
  5  6  1  0
  6  7  1  0
  2  7  1  0
  7  8  1  6
  8  9  1  0
  9 10  1  0
 10 11  1  0
 10 12  1  0
 10 13  2  0
  5 14  1  1
 15 14  1  0
 15 16  1  1
 15 17  2  0
 15 18  1  0
 18 19  1  0
 19 20  1  0
 19 21  1  0
 19 22  2  0
M  END
$$$$
