1261
     RDKit          2D

 28 30  0  0  1  0  0  0  0  0999 V2000
   10.6161    1.5194    0.0000 F   0  0  0  0  0  0  0  0  0  0  0  0
   10.0882    2.5599    0.0000 F   0  0  0  0  0  0  0  0  0  0  0  0
    9.0476    2.0320    0.0000 F   0  0  0  0  0  0  0  0  0  0  0  0
    3.0791    0.7401    0.0000 F   0  0  0  0  0  0  0  0  0  0  0  0
    3.0791   -2.5599    0.0000 F   0  0  0  0  0  0  0  0  0  0  0  0
    1.6500   -1.7349    0.0000 F   0  0  0  0  0  0  0  0  0  0  0  0
    6.6515   -1.3224    0.0000 O   0  0  0  0  0  0  0  0  0  0  0  0
    7.3659   -0.0849    0.0000 N   0  0  0  0  0  0  0  0  0  0  0  0
    8.7949    0.7401    0.0000 N   0  0  0  0  0  0  0  0  0  0  0  0
    9.5756   -0.3363    0.0000 N   0  0  0  0  0  0  0  0  0  0  0  0
    5.2224   -1.3224    0.0000 N   0  0  0  0  0  0  0  0  0  0  0  0
   10.0571    0.3276    0.0000 N   0  0  0  0  0  0  0  0  0  0  0  0
    7.3659    0.7401    0.0000 C   0  0  0  0  0  0  0  0  0  0  0  0
    8.0804    1.1526    0.0000 C   0  0  0  0  0  0  0  0  0  0  0  0
    8.0804   -0.4974    0.0000 C   0  0  0  0  0  0  0  0  0  0  0  0
    8.7949   -0.0849    0.0000 C   0  0  0  0  0  0  0  0  0  0  0  0
    5.9370   -0.0849    0.0000 C   0  0  0  0  0  0  0  0  0  0  0  0
    5.2224   -0.4974    0.0000 C   0  0  0  0  0  0  0  0  0  0  0  0
    6.6515   -0.4974    0.0000 C   0  0  0  0  0  0  0  0  0  0  0  0
    4.5080   -0.0849    0.0000 C   0  0  0  0  0  0  0  0  0  0  0  0
    9.5756    0.9915    0.0000 C   0  0  0  0  0  0  0  0  0  0  0  0
    3.7935   -0.4974    0.0000 C   0  0  0  0  0  0  0  0  0  0  0  0
    9.8318    1.7758    0.0000 C   0  0  0  0  0  0  0  0  0  0  0  0
    3.0791   -0.0849    0.0000 C   0  0  0  0  0  0  0  0  0  0  0  0
    3.7935   -1.3224    0.0000 C   0  0  0  0  0  0  0  0  0  0  0  0
    3.0791   -1.7349    0.0000 C   0  0  0  0  0  0  0  0  0  0  0  0
    2.3645   -0.4974    0.0000 C   0  0  0  0  0  0  0  0  0  0  0  0
    2.3645   -1.3224    0.0000 C   0  0  0  0  0  0  0  0  0  0  0  0
  1 23  1  0
  2 23  1  0
  3 23  1  0
  4 24  1  0
  5 26  1  0
  6 28  1  0
  7 19  2  0
  8 13  1  0
  8 15  1  0
  8 19  1  0
  9 14  1  0
  9 16  1  0
  9 21  1  0
 10 12  1  0
 10 16  2  0
 18 11  1  6
 12 21  2  0
 13 14  1  0
 15 16  1  0
 17 18  1  0
 17 19  1  0
 18 20  1  0
 20 22  1  0
 21 23  1  0
 22 24  2  0
 22 25  1  0
 24 27  1  0
 25 26  2  0
 26 28  1  0
 27 28  2  0
M  END
$$$$
