1628
     RDKit          2D

 24 26  0  0  0  0  0  0  0  0999 V2000
    6.6513   -2.8875    0.0000 Cl  0  0  0  0  0  0  0  0  0  0  0  0
    5.2223    2.0625    0.0000 S   0  0  0  0  0  0  0  0  0  0  0  0
    4.3973    2.0625    0.0000 O   0  0  0  0  0  0  0  0  0  0  0  0
    6.0473    2.0625    0.0000 O   0  0  0  0  0  0  0  0  0  0  0  0
    4.5079   -2.4750    0.0000 N   0  0  0  0  0  0  0  0  0  0  0  0
    3.0790    0.0000    0.0000 N   0  0  0  0  0  0  0  0  0  0  0  0
    5.2223   -0.4125    0.0000 C   0  0  0  0  0  0  0  0  0  0  0  0
    5.2223   -1.2375    0.0000 C   0  0  0  0  0  0  0  0  0  0  0  0
    5.2223    1.2375    0.0000 C   0  0  0  0  0  0  0  0  0  0  0  0
    4.5079   -1.6500    0.0000 C   0  0  0  0  0  0  0  0  0  0  0  0
    4.5079    0.0000    0.0000 C   0  0  0  0  0  0  0  0  0  0  0  0
    5.9369    0.0000    0.0000 C   0  0  0  0  0  0  0  0  0  0  0  0
    4.5079    0.8250    0.0000 C   0  0  0  0  0  0  0  0  0  0  0  0
    5.9369    0.8250    0.0000 C   0  0  0  0  0  0  0  0  0  0  0  0
    3.7934   -1.2375    0.0000 C   0  0  0  0  0  0  0  0  0  0  0  0
    5.9369   -1.6500    0.0000 C   0  0  0  0  0  0  0  0  0  0  0  0
    5.2223    2.8875    0.0000 C   0  0  0  0  0  0  0  0  0  0  0  0
    3.0790   -1.6500    0.0000 C   0  0  0  0  0  0  0  0  0  0  0  0
    5.9369   -2.4750    0.0000 C   0  0  0  0  0  0  0  0  0  0  0  0
    3.7934   -0.4125    0.0000 C   0  0  0  0  0  0  0  0  0  0  0  0
    5.2223   -2.8875    0.0000 C   0  0  0  0  0  0  0  0  0  0  0  0
    2.3644   -1.2375    0.0000 C   0  0  0  0  0  0  0  0  0  0  0  0
    2.3644   -0.4125    0.0000 C   0  0  0  0  0  0  0  0  0  0  0  0
    1.6500    0.0000    0.0000 C   0  0  0  0  0  0  0  0  0  0  0  0
  1 19  1  0
  2  3  2  0
  2  4  2  0
  2  9  1  0
  2 17  1  0
  5 10  2  0
  5 21  1  0
  6 20  2  0
  6 23  1  0
  7  8  1  0
  7 11  2  0
  7 12  1  0
  8 10  1  0
  8 16  2  0
  9 13  2  0
  9 14  1  0
 10 15  1  0
 11 13  1  0
 12 14  2  0
 15 18  2  0
 15 20  1  0
 16 19  1  0
 18 22  1  0
 19 21  2  0
 22 23  2  0
 23 24  1  0
M  END
$$$$
