1069
     RDKit          2D

 20 22  0  0  1  0  0  0  0  0999 V2000
    3.6958   -1.9665    0.0000 S   0  0  0  0  0  0  0  0  0  0  0  0
    3.6958   -0.3823    0.0000 N   0  0  0  0  0  0  0  0  0  0  0  0
    4.3819    1.5979    0.0000 N   0  0  0  0  0  0  0  0  0  0  0  0
    4.3819    0.8058    0.0000 C   0  0  0  0  0  0  0  0  0  0  0  0
    3.6958    0.4097    0.0000 C   0  0  0  0  0  0  0  0  0  0  0  0
    3.0099   -0.7784    0.0000 C   0  0  0  0  0  0  0  0  0  0  0  0
    4.3819   -0.7784    0.0000 C   0  0  0  0  0  0  0  0  0  0  0  0
    5.0678    0.4097    0.0000 C   0  0  0  0  0  0  0  0  0  0  0  0
    3.0099   -1.5704    0.0000 C   0  0  0  0  0  0  0  0  0  0  0  0
    4.3819   -1.5704    0.0000 C   0  0  0  0  0  0  0  0  0  0  0  0
    5.0678    1.9939    0.0000 C   0  0  0  0  0  0  0  0  0  0  0  0
    3.6958    1.9939    0.0000 C   0  0  0  0  0  0  0  0  0  0  0  0
    2.3019   -0.3549    0.0000 C   0  0  0  0  0  0  0  0  0  0  0  0
    5.0899   -0.3549    0.0000 C   0  0  0  0  0  0  0  0  0  0  0  0
    2.3019   -1.9939    0.0000 C   0  0  0  0  0  0  0  0  0  0  0  0
    5.0899   -1.9939    0.0000 C   0  0  0  0  0  0  0  0  0  0  0  0
    1.5842   -0.7619    0.0000 C   0  0  0  0  0  0  0  0  0  0  0  0
    5.8076   -0.7619    0.0000 C   0  0  0  0  0  0  0  0  0  0  0  0
    1.5842   -1.5869    0.0000 C   0  0  0  0  0  0  0  0  0  0  0  0
    5.8076   -1.5869    0.0000 C   0  0  0  0  0  0  0  0  0  0  0  0
  1  9  1  0
  1 10  1  0
  2  5  1  0
  2  6  1  0
  2  7  1  0
  3  4  1  0
  3 11  1  0
  3 12  1  0
  4  5  1  0
  4  8  1  0
  6  9  2  0
  6 13  1  0
  7 10  2  0
  7 14  1  0
  9 15  1  0
 10 16  1  0
 13 17  2  0
 14 18  2  0
 15 19  2  0
 16 20  2  0
 17 19  1  0
 18 20  1  0
M  END
$$$$
