1262
     RDKit          2D

 16 17  0  0  1  0  0  0  0  0999 V2000
    3.7464   -1.1305    0.0000 O   0  0  0  0  0  0  0  0  0  0  0  0
    2.1816   -2.5826    0.0000 O   0  0  0  0  0  0  0  0  0  0  0  0
    4.7969   -2.4964    0.0000 O   0  0  0  0  0  0  0  0  0  0  0  0
    1.6500    0.1794    0.0000 O   0  0  0  0  0  0  0  0  0  0  0  0
    3.0790    0.1794    0.0000 N   0  0  0  0  0  0  0  0  0  0  0  0
    2.3645    1.4169    0.0000 N   0  0  0  0  0  0  0  0  0  0  0  0
    3.7935    1.4169    0.0000 N   0  0  0  0  0  0  0  0  0  0  0  0
    3.0790    2.6545    0.0000 N   0  0  0  0  0  0  0  0  0  0  0  0
    2.6665   -1.9152    0.0000 C   0  0  0  0  0  0  0  0  0  0  0  0
    2.4115   -1.1305    0.0000 C   0  0  0  0  0  0  0  0  0  0  0  0
    3.4915   -1.9152    0.0000 C   0  0  0  0  0  0  0  0  0  0  0  0
    3.0790   -0.6456    0.0000 C   0  0  0  0  0  0  0  0  0  0  0  0
    3.9764   -2.5826    0.0000 C   0  0  0  0  0  0  0  0  0  0  0  0
    2.3645    0.5919    0.0000 C   0  0  0  0  0  0  0  0  0  0  0  0
    3.7935    0.5919    0.0000 C   0  0  0  0  0  0  0  0  0  0  0  0
    3.0790    1.8294    0.0000 C   0  0  0  0  0  0  0  0  0  0  0  0
  1 11  1  0
  1 12  1  0
  9  2  1  1
  3 13  1  0
  4 14  2  0
 12  5  1  6
  5 14  1  0
  5 15  1  0
  6 14  1  0
  6 16  2  0
  7 15  2  0
  7 16  1  0
  8 16  1  0
  9 10  1  0
  9 11  1  0
 10 12  1  0
 11 13  1  6
M  END
$$$$
