
     RDKit          2D

 27 31  0  0  0  0  0  0  0  0999 V2000
    0.8874   -0.8264    0.0000 O   0  0  0  0  0  0  0  0  0  0  0  0
    0.1829    0.4132    0.0000 O   0  0  0  0  0  0  0  0  0  0  0  0
   -0.5282   -0.8264    0.0000 N   0  0  0  0  0  0  0  0  0  0  0  0
    2.6755   -0.4335    0.0000 N   0  0  0  0  0  0  0  0  0  0  0  0
   -1.2462   -0.4132    0.0000 C   0  0  0  0  0  0  0  0  0  0  0  0
   -1.9574   -0.8264    0.0000 C   0  0  0  0  0  0  0  0  0  0  0  0
   -1.9574   -1.6528    0.0000 C   0  0  0  0  0  0  0  0  0  0  0  0
   -1.2462    0.4132    0.0000 C   0  0  0  0  0  0  0  0  0  0  0  0
    0.1829   -0.4132    0.0000 C   0  0  0  0  0  0  0  0  0  0  0  0
    1.7002   -0.3861    0.0000 C   0  0  0  0  0  0  0  0  0  0  0  0
   -0.5282   -1.6528    0.0000 C   0  0  0  0  0  0  0  0  0  0  0  0
    2.4181    0.0338    0.0000 C   0  0  0  0  0  0  0  0  0  0  0  0
   -1.2462   -2.0591    0.0000 C   0  0  0  0  0  0  0  0  0  0  0  0
   -2.6755   -0.4132    0.0000 C   0  0  0  0  0  0  0  0  0  0  0  0
    1.9575   -0.8467    0.0000 C   0  0  0  0  0  0  0  0  0  0  0  0
   -2.6755   -2.0591    0.0000 C   0  0  0  0  0  0  0  0  0  0  0  0
   -0.5282    0.8195    0.0000 C   0  0  0  0  0  0  0  0  0  0  0  0
   -1.9574    0.8195    0.0000 C   0  0  0  0  0  0  0  0  0  0  0  0
    3.1294   -0.3861    0.0000 C   0  0  0  0  0  0  0  0  0  0  0  0
    2.4181    0.8534    0.0000 C   0  0  0  0  0  0  0  0  0  0  0  0
    3.3867   -0.8467    0.0000 C   0  0  0  0  0  0  0  0  0  0  0  0
    2.6755    0.3929    0.0000 C   0  0  0  0  0  0  0  0  0  0  0  0
   -3.3867   -0.8264    0.0000 C   0  0  0  0  0  0  0  0  0  0  0  0
   -3.3867   -1.6528    0.0000 C   0  0  0  0  0  0  0  0  0  0  0  0
   -0.5282    1.6392    0.0000 C   0  0  0  0  0  0  0  0  0  0  0  0
   -1.9574    1.6528    0.0000 C   0  0  0  0  0  0  0  0  0  0  0  0
   -1.2462    2.0591    0.0000 C   0  0  0  0  0  0  0  0  0  0  0  0
  1  9  1  0
 10  1  1  6
  2  9  2  0
  3  5  1  0
  3  9  1  0
  3 11  1  0
  4 15  1  0
  4 21  1  0
  4 22  1  0
  5  6  1  0
  5  8  1  6
  6  7  2  0
  6 14  1  0
  7 13  1  0
  7 16  1  0
  8 17  2  0
  8 18  1  0
 10 12  1  0
 10 15  1  0
 11 13  1  0
 12 19  1  0
 12 20  1  0
 14 23  2  0
 16 24  2  0
 17 25  1  0
 18 26  2  0
 19 21  1  0
 20 22  1  0
 23 24  1  0
 25 27  2  0
 26 27  1  0
M  END
$$$$
