
     RDKit          2D

 36 40  0  0  0  0  0  0  0  0999 V2000
    5.0588   -0.2021    0.0000 C   0  0  0  0  0  0  0  0  0  0  0  0
    4.3420    0.2104    0.0000 C   0  0  0  0  0  0  0  0  0  0  0  0
    3.6294   -0.2021    0.0000 O   0  0  0  0  0  0  0  0  0  0  0  0
    2.9169    0.2104    0.0000 C   0  0  0  0  0  0  0  0  0  0  0  0
    5.8088    0.1353    0.0000 N   0  0  0  0  0  0  0  0  0  0  0  0
    6.3671   -0.4771    0.0000 N   0  0  0  0  0  0  0  0  0  0  0  0
    4.3420    1.0354    0.0000 C   0  0  0  0  0  0  0  0  0  0  0  0
    5.9546   -1.1897    0.0000 N   0  0  0  0  0  0  0  0  0  0  0  0
    3.6294    1.4480    0.0000 C   0  0  0  0  0  0  0  0  0  0  0  0
    2.9211    1.0354    0.0000 C   0  0  0  0  0  0  0  0  0  0  0  0
    5.1463   -1.0230    0.0000 N   0  0  0  0  0  0  0  0  0  0  0  0
    1.4959   -1.4480    0.0000 C   0  0  0  0  0  0  0  0  0  0  0  0
    2.2085   -1.0272    0.0000 N   0  0  0  0  0  0  0  0  0  0  0  0
    2.2085   -0.2021    0.0000 C   0  0  0  0  0  0  0  0  0  0  0  0
    0.7834   -1.0354    0.0000 C   0  0  0  0  0  0  0  0  0  0  0  0
    3.6294    2.2730    0.0000 O   0  0  0  0  0  0  0  0  0  0  0  0
    1.4959   -2.2730    0.0000 O   0  0  0  0  0  0  0  0  0  0  0  0
    0.7834   -0.2104    0.0000 C   0  0  0  0  0  0  0  0  0  0  0  0
    0.0708   -1.4522    0.0000 C   0  0  0  0  0  0  0  0  0  0  0  0
   -0.6459   -0.2145    0.0000 C   0  0  0  0  0  0  0  0  0  0  0  0
    2.1960    1.4480    0.0000 C   0  0  0  0  0  0  0  0  0  0  0  0
   -0.6417   -1.0396    0.0000 C   0  0  0  0  0  0  0  0  0  0  0  0
    0.0708    0.1979    0.0000 C   0  0  0  0  0  0  0  0  0  0  0  0
    1.4959    0.2104    0.0000 C   0  0  0  0  0  0  0  0  0  0  0  0
   -1.3667    0.1979    0.0000 O   0  0  0  0  0  0  0  0  0  0  0  0
   -4.9338   -0.2354    0.0000 C   0  0  0  0  0  0  0  0  0  0  0  0
    1.4917    1.0272    0.0000 C   0  0  0  0  0  0  0  0  0  0  0  0
   -4.2211    0.1853    0.0000 C   0  0  0  0  0  0  0  0  0  0  0  0
   -2.0792   -0.2228    0.0000 C   0  0  0  0  0  0  0  0  0  0  0  0
   -5.6546    0.1770    0.0000 C   0  0  0  0  0  0  0  0  0  0  0  0
   -4.9296   -1.0522    0.0000 C   0  0  0  0  0  0  0  0  0  0  0  0
   -3.5044   -0.2271    0.0000 C   0  0  0  0  0  0  0  0  0  0  0  0
   -2.7919    0.1896    0.0000 C   0  0  0  0  0  0  0  0  0  0  0  0
   -5.6421   -1.4730    0.0000 C   0  0  0  0  0  0  0  0  0  0  0  0
   -6.3671   -0.2354    0.0000 C   0  0  0  0  0  0  0  0  0  0  0  0
   -6.3671   -1.0605    0.0000 C   0  0  0  0  0  0  0  0  0  0  0  0
  2  1  1  0
  3  2  1  0
  4  3  1  0
  5  1  1  0
  6  5  2  0
  7  2  2  0
  8 11  1  0
  9  7  1  0
 10  9  1  0
 11  1  2  0
 12 13  1  0
 13 14  1  0
 14  4  2  0
 15 12  1  0
 16  9  2  0
 17 12  2  0
 18 15  2  0
 19 15  1  0
 20 22  1  0
 21 10  2  0
 22 19  2  0
 23 18  1  0
 24 14  1  0
 25 20  1  0
 26 28  1  0
 27 21  1  0
 28 32  1  0
 29 25  1  0
 30 26  2  0
 31 26  1  0
 32 33  1  0
 33 29  1  0
 34 31  2  0
 35 30  1  0
 36 34  1  0
  6  8  1  0
  4 10  1  0
 24 27  2  0
 20 23  2  0
 36 35  2  0
M  END
$$$$
