 
     RDKit          2D

 22 23  0  0  0  0  0  0  0  0999 V2000
   15.8430  -10.2159    0.0000 C   0  0  0  0  0  0  0  0  0  0  0  0
   15.8224  -11.0426    0.0000 C   0  0  0  0  0  0  0  0  0  0  0  0
   15.1295   -9.8043    0.0000 N   0  0  0  0  0  0  0  0  0  0  0  0
   16.5668   -9.8248    0.0000 C   0  0  0  0  0  0  0  0  0  0  0  0
   16.5291  -11.4713    0.0000 C   0  0  0  0  0  0  0  0  0  0  0  0
   14.4194  -10.2159    0.0000 N   0  0  0  0  0  0  0  0  0  0  0  0
   17.2734  -10.2501    0.0000 C   0  0  0  0  0  0  0  0  0  0  0  0
   17.2941  -11.0734    0.0000 C   0  0  0  0  0  0  0  0  0  0  0  0
   16.5497  -12.2981    0.0000 C   0  0  0  0  0  0  0  0  0  0  0  0
   13.7025   -9.8077    0.0000 C   0  0  0  0  0  0  0  0  0  0  0  0
   17.9595  -11.5056    0.0000 O   0  0  0  0  0  0  0  0  0  0  0  0
   17.2151  -12.7233    0.0000 O   0  0  0  0  0  0  0  0  0  0  0  0
   15.7847  -12.6891    0.0000 O   0  0  0  0  0  0  0  0  0  0  0  0
   13.7025   -8.9810    0.0000 C   0  0  0  0  0  0  0  0  0  0  0  0
   12.9924  -10.2159    0.0000 C   0  0  0  0  0  0  0  0  0  0  0  0
   12.9924   -8.5659    0.0000 C   0  0  0  0  0  0  0  0  0  0  0  0
   12.2755   -9.8077    0.0000 C   0  0  0  0  0  0  0  0  0  0  0  0
   12.2755   -8.9810    0.0000 C   0  0  0  0  0  0  0  0  0  0  0  0
   12.9924   -7.7426    0.0000 C   0  0  0  0  0  0  0  0  0  0  0  0
   11.5585   -8.5659    0.0000 O   0  0  0  0  0  0  0  0  0  0  0  0
   12.2789   -7.3310    0.0000 O   0  0  0  0  0  0  0  0  0  0  0  0
   13.7059   -7.3344    0.0000 O   0  0  0  0  0  0  0  0  0  0  0  0
  1  2  2  0
  1  3  1  0
  1  4  1  0
  2  5  1  0
  3  6  2  0
  4  7  2  0
  5  8  2  0
  5  9  1  0
  6 10  1  0
  8 11  1  0
  9 12  1  0
  9 13  2  0
 10 14  2  0
 10 15  1  0
 14 16  1  0
 15 17  2  0
 16 18  2  0
 16 19  1  0
 18 20  1  0
 19 21  1  0
 19 22  2  0
  7  8  1  0
 17 18  1  0
M  END
$$$$
