
     RDKit          2D

 12 12  0  0  0  0  0  0  0  0999 V2000
   -0.0115    0.3964    0.0000 N   0  0  0  0  0  0  0  0  0  0  0  0
   -0.0115   -0.4285    0.0000 C   0  0  0  0  0  0  0  0  0  0  0  0
    0.6559    0.8813    0.0000 C   0  0  0  0  0  0  0  0  0  0  0  0
   -0.6789    0.8813    0.0000 C   0  0  0  0  0  0  0  0  0  0  0  0
    0.7029   -0.8410    0.0000 C   0  0  0  0  0  0  0  0  0  0  0  0
   -0.7260   -0.8410    0.0000 C   0  0  0  0  0  0  0  0  0  0  0  0
    0.4009    1.6660    0.0000 C   0  0  0  0  0  0  0  0  0  0  0  0
    1.4405    0.6264    0.0000 O   0  0  0  0  0  0  0  0  0  0  0  0
   -0.4240    1.6660    0.0000 C   0  0  0  0  0  0  0  0  0  0  0  0
    1.4173   -0.4285    0.0000 N   0  0  0  0  0  0  0  0  0  0  0  0
    0.7029   -1.6660    0.0000 O   0  0  0  0  0  0  0  0  0  0  0  0
   -1.4405   -0.4285    0.0000 C   0  0  0  0  0  0  0  0  0  0  0  0
  2  1  1  0
  3  1  1  0
  4  1  1  0
  5  2  1  0
  2  6  1  6
  7  3  1  0
  8  3  2  0
  9  4  1  0
 10  5  1  0
 11  5  2  0
 12  6  1  0
  9  7  1  0
M  END
$$$$
