FYX
     RDKit          2D

 19 21  0  0  0  0  0  0  0  0999 V2000
   -1.3813    1.8127    0.0000 C   0  0  0  0  0  0  0  0  0  0  0  0
   -1.3813    2.6377    0.0000 C   0  0  0  0  0  0  0  0  0  0  0  0
   -0.6668    3.0502    0.0000 N   0  0  0  0  0  0  0  0  0  0  0  0
    0.0477    2.6377    0.0000 C   0  0  0  0  0  0  0  0  0  0  0  0
    0.0477    1.8127    0.0000 C   0  0  0  0  0  0  0  0  0  0  0  0
   -0.6668    1.4002    0.0000 C   0  0  0  0  0  0  0  0  0  0  0  0
   -0.6668    0.5752    0.0000 C   0  0  0  0  0  0  0  0  0  0  0  0
    0.0006    0.0903    0.0000 N   0  0  0  0  0  0  0  0  0  0  0  0
   -1.3342    0.0903    0.0000 N   0  0  0  0  0  0  0  0  0  0  0  0
   -1.0793   -0.6943    0.0000 N   0  0  0  0  0  0  0  0  0  0  0  0
   -0.2543   -0.6943    0.0000 C   0  0  0  0  0  0  0  0  0  0  0  0
    0.2306   -1.3618    0.0000 C   0  0  0  0  0  0  0  0  0  0  0  0
    1.0511   -1.2755    0.0000 C   0  0  0  0  0  0  0  0  0  0  0  0
   -0.1049   -2.1154    0.0000 C   0  0  0  0  0  0  0  0  0  0  0  0
    0.3800   -2.7829    0.0000 C   0  0  0  0  0  0  0  0  0  0  0  0
    1.2005   -2.6967    0.0000 N   0  0  0  0  0  0  0  0  0  0  0  0
    1.5360   -1.9430    0.0000 C   0  0  0  0  0  0  0  0  0  0  0  0
    2.3565   -1.8567    0.0000 C   0  0  0  0  0  0  0  0  0  0  0  0
    3.1770   -1.7705    0.0000 N   0  0  0  0  0  0  0  0  0  0  0  0
  1  2  2  0
  1  6  1  0
  2  3  1  0
  3  4  2  0
  4  5  1  0
  5  6  2  0
  6  7  1  0
  7  8  2  0
  7  9  1  0
  8 11  1  0
  9 10  1  0
 10 11  2  0
 11 12  1  0
 12 13  2  0
 12 14  1  0
 13 17  1  0
 14 15  2  0
 15 16  1  0
 16 17  2  0
 17 18  1  0
 18 19  3  0
M  END
$$$$
