1400
     RDKit          2D

 16 16  0  0  0  0  0  0  0  0999 V2000
   19.1051  -10.2897    0.0000 C   0  0  0  0  0  0  0  0  0  0  0  0
   19.8217   -9.8748    0.0000 C   0  0  0  0  0  0  0  0  0  0  0  0
   19.1086  -11.1159    0.0000 C   0  0  0  0  0  0  0  0  0  0  0  0
   18.3921   -9.8782    0.0000 O   0  0  0  0  0  0  0  0  0  0  0  0
   20.5348  -10.2897    0.0000 C   0  0  0  0  0  0  0  0  0  0  0  0
   19.8217  -11.5273    0.0000 C   0  0  0  0  0  0  0  0  0  0  0  0
   17.6789  -10.2931    0.0000 C   0  0  0  0  0  0  0  0  0  0  0  0
   20.5348  -11.1125    0.0000 C   0  0  0  0  0  0  0  0  0  0  0  0
   21.2514   -9.8748    0.0000 N   0  0  0  0  0  0  0  0  0  0  0  0
   16.9623   -9.8816    0.0000 N   0  0  0  0  0  0  0  0  0  0  0  0
   17.6789  -11.1194    0.0000 O   0  0  0  0  0  0  0  0  0  0  0  0
   22.2317   -9.3332    0.0000 C   0  0  0  0  0  0  0  0  0  0  0  0
   20.8605   -9.2508    0.0000 C   0  0  0  0  0  0  0  0  0  0  0  0
   21.7348  -10.5845    0.0000 C   0  0  0  0  0  0  0  0  0  0  0  0
   16.2526  -10.2965    0.0000 C   0  0  0  0  0  0  0  0  0  0  0  0
   16.9623   -9.0554    0.0000 C   0  0  0  0  0  0  0  0  0  0  0  0
  1  2  2  0
  1  3  1  0
  1  4  1  0
  2  5  1  0
  3  6  2  0
  4  7  1  0
  5  8  2  0
  5  9  1  0
  7 10  1  0
  7 11  2  0
  9 12  1  0
  9 13  1  0
  9 14  1  0
 10 15  1  0
 10 16  1  0
  6  8  1  0
M  CHG  1   9   1
M  END
$$$$
