1205
     RDKit          2D

 22 24  0  0  0  0  0  0  0  0999 V2000
    1.6500    0.4818    0.0000 F   0  0  0  0  0  0  0  0  0  0  0  0
    4.0454    1.9376    0.0000 O   0  0  0  0  0  0  0  0  0  0  0  0
    7.4456   -1.3934    0.0000 O   0  0  0  0  0  0  0  0  0  0  0  0
    7.2562    0.0229    0.0000 O   0  0  0  0  0  0  0  0  0  0  0  0
    4.8158   -0.6130    0.0000 N   0  0  0  0  0  0  0  0  0  0  0  0
    5.2283    1.1943    0.0000 N   0  0  0  0  0  0  0  0  0  0  0  0
    5.7351   -1.5711    0.0000 N   0  0  0  0  0  0  0  0  0  0  0  0
    5.5592   -0.2550    0.0000 C   0  0  0  0  0  0  0  0  0  0  0  0
    5.7427    0.5493    0.0000 C   0  0  0  0  0  0  0  0  0  0  0  0
    4.0726   -0.2550    0.0000 C   0  0  0  0  0  0  0  0  0  0  0  0
    3.8889    0.5493    0.0000 C   0  0  0  0  0  0  0  0  0  0  0  0
    6.1244   -0.8493    0.0000 C   0  0  0  0  0  0  0  0  0  0  0  0
    4.4033    1.1943    0.0000 C   0  0  0  0  0  0  0  0  0  0  0  0
    4.9280   -1.4253    0.0000 C   0  0  0  0  0  0  0  0  0  0  0  0
    3.4517   -0.8492    0.0000 C   0  0  0  0  0  0  0  0  0  0  0  0
    5.5863    1.9376    0.0000 C   0  0  0  0  0  0  0  0  0  0  0  0
    3.0718    0.8153    0.0000 C   0  0  0  0  0  0  0  0  0  0  0  0
    2.6286   -0.6022    0.0000 C   0  0  0  0  0  0  0  0  0  0  0  0
    6.9421   -0.7399    0.0000 C   0  0  0  0  0  0  0  0  0  0  0  0
    2.4374    0.2356    0.0000 C   0  0  0  0  0  0  0  0  0  0  0  0
    8.2633   -1.2841    0.0000 C   0  0  0  0  0  0  0  0  0  0  0  0
    8.7669   -1.9376    0.0000 C   0  0  0  0  0  0  0  0  0  0  0  0
  1 20  1  0
  2 13  2  0
  3 19  1  0
  3 21  1  0
  4 19  2  0
  5  8  1  0
  5 10  1  0
  5 14  1  0
  6  9  1  0
  6 13  1  0
  6 16  1  0
  7 12  1  0
  7 14  2  0
  8  9  1  0
  8 12  2  0
 10 11  2  0
 10 15  1  0
 11 13  1  0
 11 17  1  0
 12 19  1  0
 15 18  2  0
 17 20  2  0
 18 20  1  0
 21 22  1  0
M  END
$$$$
