1320
     RDKit          2D

 25 27  0  0  0  0  0  0  0  0999 V2000
    6.9218    1.8428    0.0000 P   0  0  0  0  0  0  0  0  0  0  0  0
    5.4110   -0.9262    0.0000 O   0  0  0  0  0  0  0  0  0  0  0  0
    6.1371    1.5878    0.0000 O   0  0  0  0  0  0  0  0  0  0  0  0
    4.5135    1.8358    0.0000 O   0  0  0  0  0  0  0  0  0  0  0  0
    6.6668    2.6274    0.0000 O   0  0  0  0  0  0  0  0  0  0  0  0
    7.7064    2.0978    0.0000 O   0  0  0  0  0  0  0  0  0  0  0  0
    7.1768    1.0582    0.0000 O   0  0  0  0  0  0  0  0  0  0  0  0
    3.8461    0.5259    0.0000 N   0  0  0  0  0  0  0  0  0  0  0  0
    5.1809    0.5259    0.0000 N   0  0  0  0  0  0  0  0  0  0  0  0
    4.1010   -0.2587    0.0000 C   0  0  0  0  0  0  0  0  0  0  0  0
    4.9260   -0.2587    0.0000 C   0  0  0  0  0  0  0  0  0  0  0  0
    4.1010   -1.0837    0.0000 C   0  0  0  0  0  0  0  0  0  0  0  0
    3.2840   -0.3735    0.0000 C   0  0  0  0  0  0  0  0  0  0  0  0
    4.5135    1.0108    0.0000 C   0  0  0  0  0  0  0  0  0  0  0  0
    5.9656    0.7809    0.0000 C   0  0  0  0  0  0  0  0  0  0  0  0
    4.8155   -1.4963    0.0000 C   0  0  0  0  0  0  0  0  0  0  0  0
    2.9749   -1.1385    0.0000 C   0  0  0  0  0  0  0  0  0  0  0  0
    3.3865   -1.4963    0.0000 C   0  0  0  0  0  0  0  0  0  0  0  0
    2.7761    0.2765    0.0000 C   0  0  0  0  0  0  0  0  0  0  0  0
    4.8155   -2.3213    0.0000 C   0  0  0  0  0  0  0  0  0  0  0  0
    2.1580   -1.2533    0.0000 C   0  0  0  0  0  0  0  0  0  0  0  0
    3.3865   -2.3213    0.0000 C   0  0  0  0  0  0  0  0  0  0  0  0
    1.9591    0.1618    0.0000 C   0  0  0  0  0  0  0  0  0  0  0  0
    4.1010   -2.7338    0.0000 C   0  0  0  0  0  0  0  0  0  0  0  0
    1.6500   -0.6032    0.0000 C   0  0  0  0  0  0  0  0  0  0  0  0
  1  3  1  0
  1  5  1  0
  1  6  1  0
  1  7  2  0
  2 11  2  0
  3 15  1  0
  4 14  2  0
  8 10  1  0
  8 14  1  0
  9 11  1  0
  9 14  1  0
  9 15  1  0
 10 11  1  0
 10 12  1  0
 10 13  1  0
 12 16  2  0
 12 18  1  0
 13 17  2  0
 13 19  1  0
 16 20  1  0
 17 21  1  0
 18 22  2  0
 19 23  2  0
 20 24  2  0
 21 25  2  0
 22 24  1  0
 23 25  1  0
M  END
$$$$
