
     RDKit          2D

  5  4  0  0  0  0  0  0  0  0999 V2000
    0.7146    0.2062    0.0000 As  0  0  0  0  0  3  0  0  0  0  0  0
   -0.7146    0.2062    0.0000 As  0  0  0  0  0  3  0  0  0  0  0  0
    0.0000   -0.2062    0.0000 O   0  0  0  0  0  0  0  0  0  0  0  0
    1.4290   -0.2062    0.0000 O   0  0  0  0  0  0  0  0  0  0  0  0
   -1.4290   -0.2062    0.0000 O   0  0  0  0  0  0  0  0  0  0  0  0
  1  3  1  0
  1  4  2  0
  2  3  1  0
  2  5  2  0
M  END
$$$$
