1253
     RDKit          2D

 24 27  0  0  1  0  0  0  0  0999 V2000
    2.3776    0.2215    0.0000 O   0  0  0  0  0  0  0  0  0  0  0  0
    1.6520    3.1062    0.0000 O   0  0  0  0  0  0  0  0  0  0  0  0
    5.2917    0.2213    0.0000 N   0  0  0  0  0  0  0  0  0  0  0  0
    6.2666   -3.1748    0.0000 N   0  0  0  0  0  0  0  0  0  0  0  0
    3.0872    1.4617    0.0000 N   0  0  0  0  0  0  0  0  0  0  0  0
    5.2784   -0.6380    0.0000 C   0  0  0  0  0  0  0  0  0  0  0  0
    4.5639   -1.0505    0.0000 C   0  0  0  0  0  0  0  0  0  0  0  0
    5.9928   -1.0505    0.0000 C   0  0  0  0  0  0  0  0  0  0  0  0
    3.8065    0.2270    0.0000 C   0  0  0  0  0  0  0  0  0  0  0  0
    4.5507    0.6567    0.0000 C   0  0  0  0  0  0  0  0  0  0  0  0
    5.9928   -1.8755    0.0000 C   0  0  0  0  0  0  0  0  0  0  0  0
    4.5639   -1.8755    0.0000 C   0  0  0  0  0  0  0  0  0  0  0  0
    5.2784   -2.2880    0.0000 C   0  0  0  0  0  0  0  0  0  0  0  0
    3.8132   -0.6324    0.0000 C   0  0  0  0  0  0  0  0  0  0  0  0
    5.2917   -3.1472    0.0000 C   0  0  0  0  0  0  0  0  0  0  0  0
    6.0108    0.6255    0.0000 C   0  0  0  0  0  0  0  0  0  0  0  0
    6.6009   -2.4258    0.0000 C   0  0  0  0  0  0  0  0  0  0  0  0
    3.0905    0.6367    0.0000 C   0  0  0  0  0  0  0  0  0  0  0  0
    3.8132   -2.2936    0.0000 C   0  0  0  0  0  0  0  0  0  0  0  0
    4.5507   -3.5827    0.0000 C   0  0  0  0  0  0  0  0  0  0  0  0
    3.8065   -3.1529    0.0000 C   0  0  0  0  0  0  0  0  0  0  0  0
    2.3712    1.8715    0.0000 C   0  0  0  0  0  0  0  0  0  0  0  0
    2.3680    2.6965    0.0000 C   0  0  0  0  0  0  0  0  0  0  0  0
    1.6583    1.4562    0.0000 C   0  0  0  0  0  0  0  0  0  0  0  0
  1 18  2  0
  2 23  1  0
  3  6  1  0
  3 10  1  0
  3 16  1  0
  4 15  1  0
  4 17  1  0
  5 18  1  0
 22  5  1  0
  6  7  1  0
  6  8  1  6
  7 12  1  0
  7 14  2  0
  8 11  1  0
  9 10  1  0
  9 14  1  0
  9 18  1  1
 11 13  1  0
 11 17  2  0
 12 13  2  0
 12 19  1  0
 13 15  1  0
 15 20  2  0
 19 21  2  0
 20 21  1  0
 22 23  1  0
 22 24  1  1
M  END
$$$$
