1030
     RDKit          2D

 31 35  0  0  1  0  0  0  0  0999 V2000
    5.5924    3.9997    0.0000 O   0  0  0  0  0  0  0  0  0  0  0  0
    6.7341    1.9917    0.0000 O   0  0  0  0  0  0  0  0  0  0  0  0
    3.4360    2.7051    0.0000 O   0  0  0  0  0  0  0  0  0  0  0  0
    7.0526    3.9798    0.0000 O   0  0  0  0  0  0  0  0  0  0  0  0
    3.8154   -3.5845    0.0000 O   0  0  0  0  0  0  0  0  0  0  0  0
    4.1504    1.4677    0.0000 N   0  0  0  0  0  0  0  0  0  0  0  0
    5.2044   -0.4301    0.0000 N   0  0  0  0  0  0  0  0  0  0  0  0
    2.4712   -2.9335    0.0000 N   0  0  0  0  0  0  0  0  0  0  0  0
    6.3300    2.7108    0.0000 C   0  0  0  0  0  0  0  0  0  0  0  0
    5.5793    2.2927    0.0000 C   0  0  0  0  0  0  0  0  0  0  0  0
    4.8648    1.0552    0.0000 C   0  0  0  0  0  0  0  0  0  0  0  0
    3.5424    0.9174    0.0000 C   0  0  0  0  0  0  0  0  0  0  0  0
    4.8648    2.7051    0.0000 C   0  0  0  0  0  0  0  0  0  0  0  0
    3.8767    0.1685    0.0000 C   0  0  0  0  0  0  0  0  0  0  0  0
    4.6922    0.2536    0.0000 C   0  0  0  0  0  0  0  0  0  0  0  0
    5.5793    1.4677    0.0000 C   0  0  0  0  0  0  0  0  0  0  0  0
    4.1504    2.2927    0.0000 C   0  0  0  0  0  0  0  0  0  0  0  0
    7.1549    2.7012    0.0000 C   0  0  0  0  0  0  0  0  0  0  0  0
    4.8516    3.5643    0.0000 C   0  0  0  0  0  0  0  0  0  0  0  0
    6.3366    3.5701    0.0000 C   0  0  0  0  0  0  0  0  0  0  0  0
    3.5165   -0.6060    0.0000 C   0  0  0  0  0  0  0  0  0  0  0  0
    4.0127   -1.3013    0.0000 C   0  0  0  0  0  0  0  0  0  0  0  0
    4.8622   -1.2128    0.0000 C   0  0  0  0  0  0  0  0  0  0  0  0
    3.6376   -2.1082    0.0000 C   0  0  0  0  0  0  0  0  0  0  0  0
    7.5589    1.9821    0.0000 C   0  0  0  0  0  0  0  0  0  0  0  0
    2.8161   -2.1842    0.0000 C   0  0  0  0  0  0  0  0  0  0  0  0
    5.3957   -1.9249    0.0000 C   0  0  0  0  0  0  0  0  0  0  0  0
    4.1543   -2.8325    0.0000 C   0  0  0  0  0  0  0  0  0  0  0  0
    5.0394   -2.7402    0.0000 C   0  0  0  0  0  0  0  0  0  0  0  0
    1.6499   -3.0096    0.0000 C   0  0  0  0  0  0  0  0  0  0  0  0
    2.9478   -3.6070    0.0000 C   0  0  0  0  0  0  0  0  0  0  0  0
  1 19  1  0
  1 20  1  0
  9  2  1  1
  3 17  2  0
  4 20  2  0
  5 28  1  0
  6 11  1  0
  6 12  1  0
  6 17  1  0
  7 15  2  0
  7 23  1  0
  8 26  1  0
  8 30  1  0
  8 31  1  0
  9 10  1  0
  9 18  1  0
  9 20  1  0
 10 13  2  0
 10 16  1  0
 11 15  1  0
 11 16  2  0
 12 14  1  0
 13 17  1  0
 13 19  1  0
 14 15  1  0
 14 21  2  0
 18 25  1  0
 21 22  1  0
 22 23  2  0
 22 24  1  0
 23 27  1  0
 24 26  1  0
 24 28  2  0
 27 29  2  0
 28 29  1  0
M  END
$$$$
