1123
     RDKit          2D

 16 18  0  0  0  0  0  0  0  0999 V2000
    4.8066    0.5507    0.0000 N   0  0  0  0  0  0  0  0  0  0  0  0
    7.6027    0.5698    0.0000 N   0  0  0  0  0  0  0  0  0  0  0  0
    2.0104    0.5698    0.0000 N   0  0  0  0  0  0  0  0  0  0  0  0
    5.4925   -0.6374    0.0000 C   0  0  0  0  0  0  0  0  0  0  0  0
    4.1206   -0.6374    0.0000 C   0  0  0  0  0  0  0  0  0  0  0  0
    5.4925    0.1547    0.0000 C   0  0  0  0  0  0  0  0  0  0  0  0
    4.1206    0.1547    0.0000 C   0  0  0  0  0  0  0  0  0  0  0  0
    4.8066   -1.0334    0.0000 C   0  0  0  0  0  0  0  0  0  0  0  0
    6.2005   -1.0609    0.0000 C   0  0  0  0  0  0  0  0  0  0  0  0
    3.4125   -1.0609    0.0000 C   0  0  0  0  0  0  0  0  0  0  0  0
    6.2005    0.5781    0.0000 C   0  0  0  0  0  0  0  0  0  0  0  0
    3.4125    0.5781    0.0000 C   0  0  0  0  0  0  0  0  0  0  0  0
    6.9183    0.1712    0.0000 C   0  0  0  0  0  0  0  0  0  0  0  0
    2.6948    0.1712    0.0000 C   0  0  0  0  0  0  0  0  0  0  0  0
    6.9183   -0.6539    0.0000 C   0  0  0  0  0  0  0  0  0  0  0  0
    2.6948   -0.6539    0.0000 C   0  0  0  0  0  0  0  0  0  0  0  0
  1  6  2  0
  1  7  1  0
  2 13  1  0
  3 14  1  0
  4  6  1  0
  4  8  2  0
  4  9  1  0
  5  7  2  0
  5  8  1  0
  5 10  1  0
  6 11  1  0
  7 12  1  0
  9 15  2  0
 10 16  2  0
 11 13  2  0
 12 14  2  0
 13 15  1  0
 14 16  1  0
M  END
$$$$
