1145
     RDKit          2D

 25 26  0  0  1  0  0  0  0  0999 V2000
    3.0790    0.0000    0.0000 S   0  0  0  0  0  0  0  0  0  0  0  0
    2.3644   -4.5375    0.0000 S   0  0  0  0  0  0  0  0  0  0  0  0
    3.7934    4.5375    0.0000 S   0  0  0  0  0  0  0  0  0  0  0  0
    3.9040    0.0000    0.0000 O   0  0  0  0  0  0  0  0  0  0  0  0
    2.2540    0.0000    0.0000 O   0  0  0  0  0  0  0  0  0  0  0  0
    1.6500   -4.9500    0.0000 O   0  0  0  0  0  0  0  0  0  0  0  0
    4.5079    4.9500    0.0000 O   0  0  0  0  0  0  0  0  0  0  0  0
    3.0790   -4.9500    0.0000 O   0  0  0  0  0  0  0  0  0  0  0  0
    3.0790    4.9500    0.0000 O   0  0  0  0  0  0  0  0  0  0  0  0
    3.0790   -3.3000    0.0000 N   0  0  0  0  0  0  0  0  0  0  0  0
    3.0790    3.3000    0.0000 N   0  0  0  0  0  0  0  0  0  0  0  0
    3.0790   -0.8250    0.0000 C   0  0  0  0  0  0  0  0  0  0  0  0
    3.0790    0.8250    0.0000 C   0  0  0  0  0  0  0  0  0  0  0  0
    2.3644   -1.2375    0.0000 C   0  0  0  0  0  0  0  0  0  0  0  0
    3.7934    1.2375    0.0000 C   0  0  0  0  0  0  0  0  0  0  0  0
    3.7934   -1.2375    0.0000 C   0  0  0  0  0  0  0  0  0  0  0  0
    2.3644    1.2375    0.0000 C   0  0  0  0  0  0  0  0  0  0  0  0
    3.0790   -2.4750    0.0000 C   0  0  0  0  0  0  0  0  0  0  0  0
    3.0790    2.4750    0.0000 C   0  0  0  0  0  0  0  0  0  0  0  0
    2.3644   -2.0625    0.0000 C   0  0  0  0  0  0  0  0  0  0  0  0
    3.7934    2.0625    0.0000 C   0  0  0  0  0  0  0  0  0  0  0  0
    3.7934   -2.0625    0.0000 C   0  0  0  0  0  0  0  0  0  0  0  0
    2.3644    2.0625    0.0000 C   0  0  0  0  0  0  0  0  0  0  0  0
    2.3644   -3.7125    0.0000 C   0  0  0  0  0  0  0  0  0  0  0  0
    3.7934    3.7125    0.0000 C   0  0  0  0  0  0  0  0  0  0  0  0
  1  4  2  0
  1  5  2  0
  1 12  1  0
  1 13  1  0
  2  6  1  0
  2  8  2  0
  2 24  1  0
  3  7  1  0
  3  9  2  0
  3 25  1  0
 10 18  1  0
 10 24  1  0
 11 19  1  0
 11 25  1  0
 12 14  2  0
 12 16  1  0
 13 15  2  0
 13 17  1  0
 14 20  1  0
 15 21  1  0
 16 22  2  0
 17 23  2  0
 18 20  2  0
 18 22  1  0
 19 21  2  0
 19 23  1  0
M  END
$$$$
