1321
     RDKit          2D

 58 60  0  0  1  0  0  0  0  0999 V2000
    5.9370    2.3576    0.0000 O   0  0  0  0  0  0  0  0  0  0  0  0
    7.3659    0.7075    0.0000 O   0  0  0  0  0  0  0  0  0  0  0  0
    8.7949    0.7075    0.0000 O   0  0  0  0  0  0  0  0  0  0  0  0
    5.2224    1.1200    0.0000 O   0  0  0  0  0  0  0  0  0  0  0  0
    8.7949    2.3575    0.0000 O   0  0  0  0  0  0  0  0  0  0  0  0
    2.9685    1.9451    0.0000 O   0  0  0  0  0  0  0  0  0  0  0  0
    3.0790    0.7075    0.0000 O   0  0  0  0  0  0  0  0  0  0  0  0
   10.4450   -0.7215    0.0000 O   0  0  0  0  0  0  0  0  0  0  0  0
   10.4022    1.3732    0.0000 O   0  0  0  0  0  0  0  0  0  0  0  0
    9.1396   -3.3393    0.0000 O   0  0  0  0  0  0  0  0  0  0  0  0
    6.4469   -0.7467    0.0000 O   0  0  0  0  0  0  0  0  0  0  0  0
   12.4231   -0.6476    0.0000 O   0  0  0  0  0  0  0  0  0  0  0  0
    3.7935   -0.5301    0.0000 O   0  0  0  0  0  0  0  0  0  0  0  0
   11.0429   -1.0174    0.0000 O   0  0  0  0  0  0  0  0  0  0  0  0
   11.7826    1.7431    0.0000 O   0  0  0  0  0  0  0  0  0  0  0  0
    7.3659    3.1825    0.0000 N   0  0  0  0  0  0  0  0  0  0  0  0
    7.3659    2.3575    0.0000 C   0  0  0  0  0  0  0  0  0  0  0  0
    6.6515    1.9451    0.0000 C   0  0  0  0  0  0  0  0  0  0  0  0
    8.0804    1.9450    0.0000 C   0  0  0  0  0  0  0  0  0  0  0  0
    6.6515    1.1200    0.0000 C   0  0  0  0  0  0  0  0  0  0  0  0
    8.0805    1.1200    0.0000 C   0  0  0  0  0  0  0  0  0  0  0  0
    9.2075   -0.0070    0.0000 C   0  0  0  0  0  0  0  0  0  0  0  0
    3.7935    1.9451    0.0000 C   0  0  0  0  0  0  0  0  0  0  0  0
    5.2224    1.9451    0.0000 C   0  0  0  0  0  0  0  0  0  0  0  0
    8.6240   -0.5904    0.0000 C   0  0  0  0  0  0  0  0  0  0  0  0
    4.5080    2.3576    0.0000 C   0  0  0  0  0  0  0  0  0  0  0  0
    3.7935    1.1200    0.0000 C   0  0  0  0  0  0  0  0  0  0  0  0
    4.5080    0.7075    0.0000 C   0  0  0  0  0  0  0  0  0  0  0  0
   10.0325   -0.0070    0.0000 C   0  0  0  0  0  0  0  0  0  0  0  0
    8.8376   -1.3873    0.0000 C   0  0  0  0  0  0  0  0  0  0  0  0
    5.9369    0.7075    0.0000 C   0  0  0  0  0  0  0  0  0  0  0  0
    8.4251   -2.1017    0.0000 C   0  0  0  0  0  0  0  0  0  0  0  0
    7.8271   -0.3769    0.0000 C   0  0  0  0  0  0  0  0  0  0  0  0
   10.6158    0.5764    0.0000 C   0  0  0  0  0  0  0  0  0  0  0  0
    3.3810    2.6595    0.0000 C   0  0  0  0  0  0  0  0  0  0  0  0
    8.0804    3.5950    0.0000 C   0  0  0  0  0  0  0  0  0  0  0  0
    6.6515    3.5950    0.0000 C   0  0  0  0  0  0  0  0  0  0  0  0
    4.5080   -0.1175    0.0000 C   0  0  0  0  0  0  0  0  0  0  0  0
    9.1396   -2.5142    0.0000 C   0  0  0  0  0  0  0  0  0  0  0  0
   11.4127    0.3628    0.0000 C   0  0  0  0  0  0  0  0  0  0  0  0
    7.6001   -2.1017    0.0000 C   0  0  0  0  0  0  0  0  0  0  0  0
    7.2437   -0.9602    0.0000 C   0  0  0  0  0  0  0  0  0  0  0  0
    3.0790   -0.1175    0.0000 C   0  0  0  0  0  0  0  0  0  0  0  0
    9.8540   -2.1017    0.0000 C   0  0  0  0  0  0  0  0  0  0  0  0
    9.6324   -0.8647    0.0000 C   0  0  0  0  0  0  0  0  0  0  0  0
   11.6262   -0.4340    0.0000 C   0  0  0  0  0  0  0  0  0  0  0  0
    2.3645   -0.5300    0.0000 C   0  0  0  0  0  0  0  0  0  0  0  0
   10.9856    1.9567    0.0000 C   0  0  0  0  0  0  0  0  0  0  0  0
    2.3645   -1.3551    0.0000 C   0  0  0  0  0  0  0  0  0  0  0  0
   10.5685   -2.5142    0.0000 C   0  0  0  0  0  0  0  0  0  0  0  0
   13.0065   -1.2309    0.0000 C   0  0  0  0  0  0  0  0  0  0  0  0
   10.7721    2.7536    0.0000 C   0  0  0  0  0  0  0  0  0  0  0  0
    1.6500   -1.7676    0.0000 C   0  0  0  0  0  0  0  0  0  0  0  0
    3.0791   -1.7676    0.0000 C   0  0  0  0  0  0  0  0  0  0  0  0
   12.7120   -2.1017    0.0000 C   0  0  0  0  0  0  0  0  0  0  0  0
   11.2830   -2.1017    0.0000 C   0  0  0  0  0  0  0  0  0  0  0  0
   11.9975   -2.5142    0.0000 C   0  0  0  0  0  0  0  0  0  0  0  0
   13.8035   -1.0174    0.0000 C   0  0  0  0  0  0  0  0  0  0  0  0
 18  1  1  1
 24  1  1  6
  2 20  1  0
  2 21  1  0
 21  3  1  6
 22  3  1  6
  4 24  1  0
  4 28  1  0
 19  5  1  1
 23  6  1  0
 27  7  1  6
  7 43  1  0
 29  8  1  6
  8 45  1  0
 34  9  1  6
  9 48  1  0
 39 10  1  6
 11 42  2  0
 12 46  1  0
 12 51  1  0
 13 43  2  0
 14 46  2  0
 15 48  2  0
 17 16  1  6
 16 36  1  0
 16 37  1  0
 17 18  1  0
 17 19  1  0
 18 20  1  0
 19 21  1  0
 20 31  1  6
 22 25  1  0
 22 29  1  0
 23 26  1  0
 23 27  1  0
 23 35  1  1
 24 26  1  0
 25 30  1  0
 25 33  1  6
 27 28  1  0
 28 38  1  1
 29 34  1  0
 30 32  1  0
 32 39  1  0
 32 41  1  6
 33 42  1  0
 34 40  1  0
 39 44  1  0
 40 46  1  0
 43 47  1  0
 44 50  2  0
 47 49  1  0
 48 52  1  0
 49 53  1  0
 49 54  1  0
 50 56  1  0
 51 55  1  0
 51 58  1  6
 55 57  1  0
 56 57  2  0
M  END
$$$$
