1092
     RDKit          2D

 41 46  0  0  1  0  0  0  0  0999 V2000
    9.3991   -1.1531    0.0000 O   0  0  0  0  0  0  0  0  0  0  0  0
    7.2065   -2.4305    0.0000 O   0  0  0  0  0  0  0  0  0  0  0  0
    7.2557    0.9094    0.0000 O   0  0  0  0  0  0  0  0  0  0  0  0
    5.9368    0.3612    0.0000 O   0  0  0  0  0  0  0  0  0  0  0  0
    6.5145    0.4967    0.0000 O   0  0  0  0  0  0  0  0  0  0  0  0
    4.9498   -2.0213    0.0000 O   0  0  0  0  0  0  0  0  0  0  0  0
   10.4384    2.8674    0.0000 O   0  0  0  0  0  0  0  0  0  0  0  0
    4.2402   -0.7810    0.0000 O   0  0  0  0  0  0  0  0  0  0  0  0
   11.8908    3.0948    0.0000 O   0  0  0  0  0  0  0  0  0  0  0  0
    3.5177   -2.8408    0.0000 O   0  0  0  0  0  0  0  0  0  0  0  0
    2.0920   -2.0103    0.0000 O   0  0  0  0  0  0  0  0  0  0  0  0
    2.0983   -0.3603    0.0000 O   0  0  0  0  0  0  0  0  0  0  0  0
    7.9702   -0.3281    0.0000 C   0  0  0  0  0  0  0  0  0  0  0  0
    8.6847   -0.7406    0.0000 C   0  0  0  0  0  0  0  0  0  0  0  0
    9.3991   -0.3281    0.0000 C   0  0  0  0  0  0  0  0  0  0  0  0
    9.3991    0.4969    0.0000 C   0  0  0  0  0  0  0  0  0  0  0  0
    7.2194   -0.7463    0.0000 C   0  0  0  0  0  0  0  0  0  0  0  0
    7.2128   -1.6056    0.0000 C   0  0  0  0  0  0  0  0  0  0  0  0
    7.9702    0.4969    0.0000 C   0  0  0  0  0  0  0  0  0  0  0  0
    8.6847    0.9094    0.0000 C   0  0  0  0  0  0  0  0  0  0  0  0
   10.1798    0.7483    0.0000 C   0  0  0  0  0  0  0  0  0  0  0  0
    8.6979   -1.5998    0.0000 C   0  0  0  0  0  0  0  0  0  0  0  0
   10.1798   -0.5795    0.0000 C   0  0  0  0  0  0  0  0  0  0  0  0
    7.9570   -2.0353    0.0000 C   0  0  0  0  0  0  0  0  0  0  0  0
    6.4548   -0.2809    0.0000 C   0  0  0  0  0  0  0  0  0  0  0  0
   10.6612    0.0844    0.0000 C   0  0  0  0  0  0  0  0  0  0  0  0
    6.4411   -2.0591    0.0000 C   0  0  0  0  0  0  0  0  0  0  0  0
    7.2258    0.0787    0.0000 C   0  0  0  0  0  0  0  0  0  0  0  0
    9.3991    1.3219    0.0000 C   0  0  0  0  0  0  0  0  0  0  0  0
    5.6728   -0.7164    0.0000 C   0  0  0  0  0  0  0  0  0  0  0  0
    5.6659   -1.6116    0.0000 C   0  0  0  0  0  0  0  0  0  0  0  0
   10.4361    1.5324    0.0000 C   0  0  0  0  0  0  0  0  0  0  0  0
    9.9523    2.2008    0.0000 C   0  0  0  0  0  0  0  0  0  0  0  0
   11.2212    1.7860    0.0000 C   0  0  0  0  0  0  0  0  0  0  0  0
    4.2370   -1.6060    0.0000 C   0  0  0  0  0  0  0  0  0  0  0  0
   11.2226    2.6110    0.0000 C   0  0  0  0  0  0  0  0  0  0  0  0
    3.5209   -2.0158    0.0000 C   0  0  0  0  0  0  0  0  0  0  0  0
    2.8081   -1.6005    0.0000 C   0  0  0  0  0  0  0  0  0  0  0  0
    3.5273   -0.3658    0.0000 C   0  0  0  0  0  0  0  0  0  0  0  0
    2.8112   -0.7755    0.0000 C   0  0  0  0  0  0  0  0  0  0  0  0
    3.5304    0.4592    0.0000 C   0  0  0  0  0  0  0  0  0  0  0  0
 15  1  1  1
 18  2  1  1
 19  3  1  6
 25  4  1  1
  5 28  1  0
 31  6  1  1
 35  6  1  1
  7 33  1  0
  7 36  1  0
  8 35  1  0
  8 39  1  0
  9 36  2  0
 37 10  1  6
 38 11  1  6
 40 12  1  1
 13 14  1  0
 13 17  1  0
 13 19  1  1
 14 15  1  0
 14 22  1  6
 15 16  1  0
 15 23  1  0
 16 20  1  0
 16 21  1  0
 16 29  1  1
 17 18  1  0
 17 25  1  0
 17 28  1  1
 18 24  1  0
 18 27  1  0
 19 20  1  0
 21 26  1  0
 21 32  1  1
 22 24  1  0
 23 26  1  0
 25 30  1  0
 27 31  1  0
 30 31  1  0
 32 33  1  0
 32 34  2  0
 34 36  1  0
 35 37  1  0
 37 38  1  0
 38 40  1  0
 39 40  1  0
 39 41  1  6
M  END
$$$$
