1127
     RDKit          2D

 24 26  0  0  1  0  0  0  0  0999 V2000
    3.7934   -0.6188    0.0000 Cl  0  0  0  0  0  0  0  0  0  0  0  0
    5.2223   -3.0938    0.0000 Cl  0  0  0  0  0  0  0  0  0  0  0  0
    1.6500    3.0938    0.0000 Cl  0  0  0  0  0  0  0  0  0  0  0  0
    4.5079    0.6188    0.0000 O   0  0  0  0  0  0  0  0  0  0  0  0
    5.9369    1.4438    0.0000 N   0  0  0  0  0  0  0  0  0  0  0  0
    6.3494    2.7133    0.0000 N   0  0  0  0  0  0  0  0  0  0  0  0
    5.2223    0.2063    0.0000 C   0  0  0  0  0  0  0  0  0  0  0  0
    5.9369    0.6188    0.0000 C   0  0  0  0  0  0  0  0  0  0  0  0
    5.2223   -0.6188    0.0000 C   0  0  0  0  0  0  0  0  0  0  0  0
    4.5079    1.4438    0.0000 C   0  0  0  0  0  0  0  0  0  0  0  0
    4.5079   -1.0313    0.0000 C   0  0  0  0  0  0  0  0  0  0  0  0
    5.9369   -1.0313    0.0000 C   0  0  0  0  0  0  0  0  0  0  0  0
    3.7934    1.8563    0.0000 C   0  0  0  0  0  0  0  0  0  0  0  0
    5.2694    1.9287    0.0000 C   0  0  0  0  0  0  0  0  0  0  0  0
    6.6043    1.9287    0.0000 C   0  0  0  0  0  0  0  0  0  0  0  0
    4.5079   -1.8563    0.0000 C   0  0  0  0  0  0  0  0  0  0  0  0
    5.9369   -1.8563    0.0000 C   0  0  0  0  0  0  0  0  0  0  0  0
    5.2223   -2.2688    0.0000 C   0  0  0  0  0  0  0  0  0  0  0  0
    5.5244    2.7133    0.0000 C   0  0  0  0  0  0  0  0  0  0  0  0
    3.0790    1.4438    0.0000 C   0  0  0  0  0  0  0  0  0  0  0  0
    3.7934    2.6812    0.0000 C   0  0  0  0  0  0  0  0  0  0  0  0
    2.3644    1.8563    0.0000 C   0  0  0  0  0  0  0  0  0  0  0  0
    3.0790    3.0938    0.0000 C   0  0  0  0  0  0  0  0  0  0  0  0
    2.3644    2.6812    0.0000 C   0  0  0  0  0  0  0  0  0  0  0  0
  1 11  1  0
  2 18  1  0
  3 24  1  0
  4  7  1  0
  4 10  1  0
  5  8  1  0
  5 14  1  0
  5 15  1  0
  6 15  2  0
  6 19  1  0
  7  8  1  0
  7  9  1  0
  9 11  2  0
  9 12  1  0
 10 13  1  0
 11 16  1  0
 12 17  2  0
 13 20  2  0
 13 21  1  0
 14 19  2  0
 16 18  2  0
 17 18  1  0
 20 22  1  0
 21 23  2  0
 22 24  2  0
 23 24  1  0
M  END
$$$$
