2638
     RDKit          2D

 85 88  0  0  1  0  0  0  0  0999 V2000
    7.6699   -0.8250    0.0000 S   0  0  0  0  0  0  0  0  0  0  0  0
    8.3844   -0.4125    0.0000 S   0  0  0  0  0  0  0  0  0  0  0  0
    3.9028   -0.1645    0.0000 O   0  0  0  0  0  0  0  0  0  0  0  0
    4.8119   -0.8250    0.0000 O   0  0  0  0  0  0  0  0  0  0  0  0
    2.2351    2.2987    0.0000 O   0  0  0  0  0  0  0  0  0  0  0  0
    4.8119   -1.6500    0.0000 O   0  0  0  0  0  0  0  0  0  0  0  0
    7.3679   -2.1731    0.0000 O   0  0  0  0  0  0  0  0  0  0  0  0
    5.5265   -4.5376    0.0000 O   0  0  0  0  0  0  0  0  0  0  0  0
    9.0989   -4.1251    0.0000 O   0  0  0  0  0  0  0  0  0  0  0  0
    3.5343    4.9745    0.0000 O   0  0  0  0  0  0  0  0  0  0  0  0
   11.2424   -0.4125    0.0000 O   0  0  0  0  0  0  0  0  0  0  0  0
   11.9568   -3.3001    0.0000 O   0  0  0  0  0  0  0  0  0  0  0  0
    6.2409   -5.7751    0.0000 O   0  0  0  0  0  0  0  0  0  0  0  0
   11.2424    0.4125    0.0000 O   0  0  0  0  0  0  0  0  0  0  0  0
   14.8148   -3.3001    0.0000 O   0  0  0  0  0  0  0  0  0  0  0  0
   10.5279    3.3001    0.0000 O   0  0  0  0  0  0  0  0  0  0  0  0
   13.3858    4.1251    0.0000 O   0  0  0  0  0  0  0  0  0  0  0  0
    5.5265    0.4125    0.0000 N   0  0  0  0  0  0  0  0  0  0  0  0
    3.4613    1.1945    0.0000 N   0  0  0  0  0  0  0  0  0  0  0  0
    6.2409   -1.6500    0.0000 N   0  0  0  0  0  0  0  0  0  0  0  0
    3.1912    3.3605    0.0000 N   0  0  0  0  0  0  0  0  0  0  0  0
    6.2409   -3.3001    0.0000 N   0  0  0  0  0  0  0  0  0  0  0  0
    6.3298    4.3804    0.0000 N   0  0  0  0  0  0  0  0  0  0  0  0
    8.3844   -2.8876    0.0000 N   0  0  0  0  0  0  0  0  0  0  0  0
   10.5279   -3.3001    0.0000 N   0  0  0  0  0  0  0  0  0  0  0  0
   10.5279   -1.6500    0.0000 N   0  0  0  0  0  0  0  0  0  0  0  0
    9.8133    0.4125    0.0000 N   0  0  0  0  0  0  0  0  0  0  0  0
    4.0975   -4.5376    0.0000 N   0  0  0  0  0  0  0  0  0  0  0  0
    2.1365    5.2716    0.0000 N   0  0  0  0  0  0  0  0  0  0  0  0
    7.6699   -5.7751    0.0000 N   0  0  0  0  0  0  0  0  0  0  0  0
   11.2424    2.0625    0.0000 N   0  0  0  0  0  0  0  0  0  0  0  0
   11.9568    4.1251    0.0000 N   0  0  0  0  0  0  0  0  0  0  0  0
   13.3858    5.7751    0.0000 N   0  0  0  0  0  0  0  0  0  0  0  0
    4.8590    0.8975    0.0000 C   0  0  0  0  0  0  0  0  0  0  0  0
    5.1140    1.6820    0.0000 C   0  0  0  0  0  0  0  0  0  0  0  0
    5.9390    1.6820    0.0000 C   0  0  0  0  0  0  0  0  0  0  0  0
    6.1939    0.8975    0.0000 C   0  0  0  0  0  0  0  0  0  0  0  0
    4.0744    0.6425    0.0000 C   0  0  0  0  0  0  0  0  0  0  0  0
    5.5265   -0.4125    0.0000 C   0  0  0  0  0  0  0  0  0  0  0  0
    6.2409   -0.8250    0.0000 C   0  0  0  0  0  0  0  0  0  0  0  0
    3.6328    2.0015    0.0000 C   0  0  0  0  0  0  0  0  0  0  0  0
    6.9554   -0.4125    0.0000 C   0  0  0  0  0  0  0  0  0  0  0  0
    4.4174    2.2565    0.0000 C   0  0  0  0  0  0  0  0  0  0  0  0
    4.5889    3.0635    0.0000 C   0  0  0  0  0  0  0  0  0  0  0  0
    3.0196    2.5536    0.0000 C   0  0  0  0  0  0  0  0  0  0  0  0
    5.5265   -2.0625    0.0000 C   0  0  0  0  0  0  0  0  0  0  0  0
    5.5265   -2.8876    0.0000 C   0  0  0  0  0  0  0  0  0  0  0  0
    5.3736    3.3184    0.0000 C   0  0  0  0  0  0  0  0  0  0  0  0
    4.8119   -3.3001    0.0000 C   0  0  0  0  0  0  0  0  0  0  0  0
    5.5451    4.1254    0.0000 C   0  0  0  0  0  0  0  0  0  0  0  0
    7.6699   -3.3001    0.0000 C   0  0  0  0  0  0  0  0  0  0  0  0
    2.5781    3.9126    0.0000 C   0  0  0  0  0  0  0  0  0  0  0  0
    6.9554   -2.8876    0.0000 C   0  0  0  0  0  0  0  0  0  0  0  0
    9.0989   -0.8250    0.0000 C   0  0  0  0  0  0  0  0  0  0  0  0
    7.6699   -4.1251    0.0000 C   0  0  0  0  0  0  0  0  0  0  0  0
    4.8119   -4.1251    0.0000 C   0  0  0  0  0  0  0  0  0  0  0  0
    9.8133   -0.4125    0.0000 C   0  0  0  0  0  0  0  0  0  0  0  0
    9.8133   -2.8876    0.0000 C   0  0  0  0  0  0  0  0  0  0  0  0
    9.0989   -3.3001    0.0000 C   0  0  0  0  0  0  0  0  0  0  0  0
   11.2424   -2.0625    0.0000 C   0  0  0  0  0  0  0  0  0  0  0  0
    2.7496    4.7196    0.0000 C   0  0  0  0  0  0  0  0  0  0  0  0
    6.9554   -4.5376    0.0000 C   0  0  0  0  0  0  0  0  0  0  0  0
   10.5279   -0.8250    0.0000 C   0  0  0  0  0  0  0  0  0  0  0  0
    9.8133   -2.0625    0.0000 C   0  0  0  0  0  0  0  0  0  0  0  0
   11.2424   -2.8876    0.0000 C   0  0  0  0  0  0  0  0  0  0  0  0
   11.9568   -1.6500    0.0000 C   0  0  0  0  0  0  0  0  0  0  0  0
    9.2830   -1.4306    0.0000 C   0  0  0  0  0  0  0  0  0  0  0  0
    6.9554   -5.3626    0.0000 C   0  0  0  0  0  0  0  0  0  0  0  0
   12.6713   -2.0625    0.0000 C   0  0  0  0  0  0  0  0  0  0  0  0
   10.5279    0.8250    0.0000 C   0  0  0  0  0  0  0  0  0  0  0  0
    8.4705   -1.5738    0.0000 C   0  0  0  0  0  0  0  0  0  0  0  0
    9.5652   -0.6553    0.0000 C   0  0  0  0  0  0  0  0  0  0  0  0
   10.5279    1.6500    0.0000 C   0  0  0  0  0  0  0  0  0  0  0  0
   13.3858   -1.6500    0.0000 C   0  0  0  0  0  0  0  0  0  0  0  0
   12.6713   -2.8876    0.0000 C   0  0  0  0  0  0  0  0  0  0  0  0
    7.9402   -0.9418    0.0000 C   0  0  0  0  0  0  0  0  0  0  0  0
    9.0349   -0.0233    0.0000 C   0  0  0  0  0  0  0  0  0  0  0  0
   14.1003   -2.0625    0.0000 C   0  0  0  0  0  0  0  0  0  0  0  0
   13.3858   -3.3001    0.0000 C   0  0  0  0  0  0  0  0  0  0  0  0
    8.2225   -0.1666    0.0000 C   0  0  0  0  0  0  0  0  0  0  0  0
   14.1003   -2.8876    0.0000 C   0  0  0  0  0  0  0  0  0  0  0  0
   11.2424    2.8876    0.0000 C   0  0  0  0  0  0  0  0  0  0  0  0
   11.9568    3.3001    0.0000 C   0  0  0  0  0  0  0  0  0  0  0  0
   12.6713    4.5376    0.0000 C   0  0  0  0  0  0  0  0  0  0  0  0
   12.6713    5.3626    0.0000 C   0  0  0  0  0  0  0  0  0  0  0  0
  1  2  1  0
  1 42  1  0
  2 54  1  0
  3 38  2  0
  4 39  2  0
  5 45  2  0
  6 46  2  0
  7 53  2  0
  8 56  2  0
  9 59  2  0
 10 61  2  0
 11 63  2  0
 12 65  2  0
 13 68  2  0
 14 70  2  0
 15 81  1  0
 16 82  2  0
 17 84  2  0
 18 34  1  0
 18 37  1  0
 18 39  1  0
 19 38  1  0
 41 19  1  0
 20 40  1  0
 20 46  1  0
 21 45  1  0
 21 52  1  0
 22 47  1  0
 22 53  1  0
 23 50  1  0
 24 51  1  0
 24 59  1  0
 25 58  1  0
 25 65  1  0
 26 60  1  0
 26 63  1  0
 57 27  1  6
 27 70  1  0
 28 56  1  0
 29 61  1  0
 30 68  1  0
 31 73  1  0
 31 82  1  0
 32 83  1  0
 32 84  1  0
 33 85  1  0
 34 35  1  0
 34 38  1  6
 35 36  1  0
 36 37  1  0
 40 39  1  6
 40 42  1  0
 41 43  1  6
 41 45  1  0
 43 44  1  0
 44 48  1  0
 46 47  1  0
 47 49  1  1
 48 50  1  0
 49 56  1  0
 51 53  1  0
 51 55  1  1
 52 61  1  0
 54 57  1  0
 55 62  1  0
 57 63  1  0
 58 59  1  0
 58 64  1  6
 60 65  1  0
 60 66  1  1
 62 68  1  0
 64 67  1  0
 66 69  1  0
 67 71  2  0
 67 72  1  0
 69 74  2  0
 69 75  1  0
 70 73  1  0
 71 76  1  0
 72 77  2  0
 74 78  1  0
 75 79  2  0
 76 80  2  0
 77 80  1  0
 78 81  2  0
 79 81  1  0
 82 83  1  0
 84 85  1  0
M  END
$$$$
