EQI
     RDKit          2D

 20 23  0  0  0  0  0  0  0  0999 V2000
    2.7176    0.3182    0.0000 C   0  0  0  0  0  0  0  0  0  0  0  0
    2.1857    0.9489    0.0000 C   0  0  0  0  0  0  0  0  0  0  0  0
    1.3736    0.8037    0.0000 C   0  0  0  0  0  0  0  0  0  0  0  0
    1.0933    0.0277    0.0000 C   0  0  0  0  0  0  0  0  0  0  0  0
    1.6251   -0.6030    0.0000 C   0  0  0  0  0  0  0  0  0  0  0  0
    2.4373   -0.4577    0.0000 C   0  0  0  0  0  0  0  0  0  0  0  0
    0.8418    1.4344    0.0000 C   0  0  0  0  0  0  0  0  0  0  0  0
    0.0297    1.2892    0.0000 C   0  0  0  0  0  0  0  0  0  0  0  0
   -0.2506    0.5132    0.0000 C   0  0  0  0  0  0  0  0  0  0  0  0
    0.2812   -0.1175    0.0000 C   0  0  0  0  0  0  0  0  0  0  0  0
   -1.0627    0.3680    0.0000 C   0  0  0  0  0  0  0  0  0  0  0  0
   -1.3430   -0.4079    0.0000 C   0  0  0  0  0  0  0  0  0  0  0  0
   -0.8112   -1.0386    0.0000 C   0  0  0  0  0  0  0  0  0  0  0  0
    0.0009   -0.8934    0.0000 C   0  0  0  0  0  0  0  0  0  0  0  0
   -1.7141    0.8744    0.0000 C   0  0  0  0  0  0  0  0  0  0  0  0
   -2.3969    0.4114    0.0000 C   0  0  0  0  0  0  0  0  0  0  0  0
   -2.1676   -0.3811    0.0000 C   0  0  0  0  0  0  0  0  0  0  0  0
   -1.7029   -1.1503    0.0000 C   0  0  0  0  0  0  0  0  0  0  0  0
    3.5297    0.4634    0.0000 O   0  0  0  0  0  0  0  0  0  0  0  0
   -2.6740   -1.0324    0.0000 O   0  0  0  0  0  0  0  0  0  0  0  0
  1  2  2  0
  1  6  1  0
  1 19  1  0
  2  3  1  0
  3  4  2  0
  3  7  1  0
  4  5  1  0
  4 10  1  0
  5  6  2  0
  7  8  1  0
  8  9  2  0
  9 10  1  0
  9 11  1  0
 10 14  1  1
 11 12  1  0
 11 15  1  1
 12 13  1  0
 12 17  1  0
 12 18  1  1
 13 14  1  0
 15 16  1  0
 16 17  1  0
 17 20  2  0
M  END
$$$$
