PLO
     RDKit          2D

 23 26  0  0  0  0  0  0  0  0999 V2000
    1.7642   -0.4159    0.0000 C   0  0  0  0  0  0  0  0  0  0  0  0
    2.5763   -0.2707    0.0000 C   0  0  0  0  0  0  0  0  0  0  0  0
    2.8566    0.5053    0.0000 C   0  0  0  0  0  0  0  0  0  0  0  0
    3.6688    0.6505    0.0000 O   0  0  0  0  0  0  0  0  0  0  0  0
    2.3248    1.1360    0.0000 C   0  0  0  0  0  0  0  0  0  0  0  0
    1.5127    0.9908    0.0000 C   0  0  0  0  0  0  0  0  0  0  0  0
    0.9809    1.6215    0.0000 C   0  0  0  0  0  0  0  0  0  0  0  0
    0.1688    1.4763    0.0000 C   0  0  0  0  0  0  0  0  0  0  0  0
   -0.1115    0.7003    0.0000 C   0  0  0  0  0  0  0  0  0  0  0  0
    0.4203    0.0696    0.0000 C   0  0  0  0  0  0  0  0  0  0  0  0
    1.2324    0.2148    0.0000 C   0  0  0  0  0  0  0  0  0  0  0  0
    0.1400   -0.7063    0.0000 C   0  0  0  0  0  0  0  0  0  0  0  0
   -0.6721   -0.8515    0.0000 C   0  0  0  0  0  0  0  0  0  0  0  0
   -1.2040   -0.2208    0.0000 C   0  0  0  0  0  0  0  0  0  0  0  0
   -0.9237    0.5551    0.0000 C   0  0  0  0  0  0  0  0  0  0  0  0
   -1.5750    1.0615    0.0000 C   0  0  0  0  0  0  0  0  0  0  0  0
   -2.2578    0.5985    0.0000 C   0  0  0  0  0  0  0  0  0  0  0  0
   -2.0285   -0.1940    0.0000 C   0  0  0  0  0  0  0  0  0  0  0  0
   -1.5638   -0.9632    0.0000 C   0  0  0  0  0  0  0  0  0  0  0  0
    0.9521   -0.5611    0.0000 C   0  0  0  0  0  0  0  0  0  0  0  0
   -2.5349   -0.8453    0.0000 C   0  0  0  0  0  0  0  0  0  0  0  0
   -2.2240   -1.6095    0.0000 C   0  0  0  0  0  0  0  0  0  0  0  0
   -3.3521   -0.7325    0.0000 O   0  0  0  0  0  0  0  0  0  0  0  0
  1  2  1  0
  1 11  1  0
  2  3  1  0
  3  4  1  1
  3  5  1  0
  5  6  1  0
  6  7  2  0
  6 11  1  0
  7  8  1  0
  9  8  1  6
  9 10  1  0
  9 15  1  0
 10 11  1  0
 10 12  1  1
 11 20  1  1
 12 13  1  0
 13 14  1  0
 14 15  1  0
 14 18  1  0
 14 19  1  1
 15 16  1  1
 16 17  1  0
 17 18  1  0
 18 21  1  1
 21 22  1  0
 21 23  2  0
M  END
$$$$
