2703
     RDKit          2D

 37 40  0  0  1  0  0  0  0  0999 V2000
    4.3976   -0.1200    0.0000 O   0  0  0  0  0  0  0  0  0  0  0  0
    8.6280   -0.9450    0.0000 O   0  0  0  0  0  0  0  0  0  0  0  0
    2.0919   -3.0506    0.0000 O   0  0  0  0  0  0  0  0  0  0  0  0
    8.6415    1.4573    0.0000 O   0  0  0  0  0  0  0  0  0  0  0  0
    8.9361    0.0592    0.0000 O   0  0  0  0  0  0  0  0  0  0  0  0
    8.6280   -2.3740    0.0000 O   0  0  0  0  0  0  0  0  0  0  0  0
    5.8265   -1.7700    0.0000 C   0  0  0  0  0  0  0  0  0  0  0  0
    5.1122   -1.3575    0.0000 C   0  0  0  0  0  0  0  0  0  0  0  0
    6.5410   -1.3575    0.0000 C   0  0  0  0  0  0  0  0  0  0  0  0
    4.3614   -1.7757    0.0000 C   0  0  0  0  0  0  0  0  0  0  0  0
    4.3547   -2.6349    0.0000 C   0  0  0  0  0  0  0  0  0  0  0  0
    6.5410   -0.5325    0.0000 C   0  0  0  0  0  0  0  0  0  0  0  0
    5.8398   -2.6291    0.0000 C   0  0  0  0  0  0  0  0  0  0  0  0
    5.1122   -0.5325    0.0000 C   0  0  0  0  0  0  0  0  0  0  0  0
    5.0990   -3.0646    0.0000 C   0  0  0  0  0  0  0  0  0  0  0  0
    5.8265   -0.1200    0.0000 C   0  0  0  0  0  0  0  0  0  0  0  0
    7.3215   -1.6089    0.0000 C   0  0  0  0  0  0  0  0  0  0  0  0
    3.5968   -1.3103    0.0000 C   0  0  0  0  0  0  0  0  0  0  0  0
    3.5831   -3.0884    0.0000 C   0  0  0  0  0  0  0  0  0  0  0  0
    6.3569   -2.4019    0.0000 C   0  0  0  0  0  0  0  0  0  0  0  0
    7.3215   -0.2812    0.0000 C   0  0  0  0  0  0  0  0  0  0  0  0
    7.8030   -0.9450    0.0000 C   0  0  0  0  0  0  0  0  0  0  0  0
    6.8232   -2.1327    0.0000 C   0  0  0  0  0  0  0  0  0  0  0  0
    4.3678   -0.9507    0.0000 C   0  0  0  0  0  0  0  0  0  0  0  0
    2.8148   -1.7458    0.0000 C   0  0  0  0  0  0  0  0  0  0  0  0
    2.8079   -2.6408    0.0000 C   0  0  0  0  0  0  0  0  0  0  0  0
    3.5863   -3.9134    0.0000 C   0  0  0  0  0  0  0  0  0  0  0  0
    7.5779    0.5030    0.0000 C   0  0  0  0  0  0  0  0  0  0  0  0
    7.0270    1.1170    0.0000 C   0  0  0  0  0  0  0  0  0  0  0  0
    8.3851    0.6732    0.0000 C   0  0  0  0  0  0  0  0  0  0  0  0
    9.0404   -1.6594    0.0000 C   0  0  0  0  0  0  0  0  0  0  0  0
    7.2832    1.9012    0.0000 C   0  0  0  0  0  0  0  0  0  0  0  0
    9.8655   -1.6594    0.0000 C   0  0  0  0  0  0  0  0  0  0  0  0
    6.7323    2.5152    0.0000 C   0  0  0  0  0  0  0  0  0  0  0  0
    6.9886    3.2994    0.0000 C   0  0  0  0  0  0  0  0  0  0  0  0
    6.4376    3.9134    0.0000 C   0  0  0  0  0  0  0  0  0  0  0  0
    7.7958    3.4695    0.0000 C   0  0  0  0  0  0  0  0  0  0  0  0
 14  1  1  6
 22  2  1  1
  2 31  1  0
 26  3  1  6
  4 30  1  0
  5 30  2  0
  6 31  2  0
  7  8  1  0
  7  9  1  0
  7 13  1  0
  7 20  1  6
  8 10  1  0
  8 14  1  6
  9 12  1  0
  9 17  1  0
  9 23  1  1
 10 11  1  0
 10 18  1  0
 10 24  1  1
 11 15  1  1
 11 19  1  0
 12 16  1  1
 12 21  1  0
 13 15  1  0
 14 16  1  0
 17 22  1  0
 18 25  1  0
 19 26  1  0
 19 27  1  6
 21 22  1  0
 21 28  2  0
 25 26  1  0
 28 29  1  0
 28 30  1  0
 29 32  1  0
 31 33  1  0
 32 34  1  0
 34 35  2  0
 35 36  1  0
 35 37  1  0
M  END
$$$$
