
     RDKit          2D

 31 33  0  0  1  0  0  0  0  0999 V2000
   15.1628  -10.5298    0.0000 C   0  0  0  0  0  0  0  0  0  0  0  0
   15.1628  -11.3548    0.0000 C   0  0  0  0  0  0  0  0  0  0  0  0
   15.8772  -11.7673    0.0000 C   0  0  0  0  0  0  0  0  0  0  0  0
   16.5918  -11.3548    0.0000 C   0  0  0  0  0  0  0  0  0  0  0  0
   16.5918  -10.5298    0.0000 C   0  0  0  0  0  0  0  0  0  0  0  0
   15.8772  -10.1173    0.0000 C   0  0  0  0  0  0  0  0  0  0  0  0
   17.3062  -11.7673    0.0000 N   0  0  0  0  0  0  0  0  0  0  0  0
   18.0207  -11.3548    0.0000 C   0  0  0  0  0  0  0  0  0  0  0  0
   18.0207  -10.5298    0.0000 C   0  0  0  0  0  0  0  0  0  0  0  0
   17.3062  -10.1173    0.0000 N   0  0  0  0  0  0  0  0  0  0  0  0
   18.7352  -11.7673    0.0000 N   0  0  0  0  0  0  0  0  0  0  0  0
   19.4496  -11.3548    0.0000 C   0  0  0  0  0  0  0  0  0  0  0  0
   19.4496  -10.5298    0.0000 N   0  0  0  0  0  0  0  0  0  0  0  0
   18.7352  -10.1173    0.0000 C   0  0  0  0  0  0  0  0  0  0  0  0
   14.4483  -10.1173    0.0000 C   0  0  0  0  0  0  0  0  0  0  0  0
   14.4483  -11.7673    0.0000 C   0  0  0  0  0  0  0  0  0  0  0  0
   20.1641  -11.7673    0.0000 O   0  0  0  0  0  0  0  0  0  0  0  0
   18.7352   -9.2923    0.0000 O   0  0  0  0  0  0  0  0  0  0  0  0
   17.3062  -12.5923    0.0000 C   0  0  0  0  0  0  0  0  0  0  0  0
   16.5918  -13.0048    0.0000 C   0  0  0  0  0  0  0  0  0  0  0  0
   15.8772  -12.5923    0.0000 O   0  0  0  0  0  0  0  0  0  0  0  0
   16.5918  -13.8299    0.0000 C   0  0  0  0  0  0  0  0  0  0  0  0
   17.3062  -14.2424    0.0000 O   0  0  0  0  0  0  0  0  0  0  0  0
   15.8772  -14.2424    0.0000 C   0  0  0  0  0  0  0  0  0  0  0  0
   15.1628  -13.8299    0.0000 C   0  0  0  0  0  0  0  0  0  0  0  0
   14.4483  -14.2424    0.0000 O   0  0  0  0  0  0  0  0  0  0  0  0
   15.8772  -15.0674    0.0000 O   0  0  0  0  0  0  0  0  0  0  0  0
   13.7338  -13.8299    0.0000 P   0  0  0  0  0  0  0  0  0  0  0  0
   13.0194  -14.2424    0.0000 O   0  0  0  0  0  0  0  0  0  0  0  0
   13.7338  -13.0048    0.0000 O   0  0  0  0  0  0  0  0  0  0  0  0
   14.4483  -13.4173    0.0000 O   0  0  0  0  0  0  0  0  0  0  0  0
  1  2  2  0
  2  3  1  0
  3  4  2  0
  4  5  1  0
  5  6  2  0
  6  1  1  0
  4  7  1  0
  7  8  1  0
  8  9  1  0
  9 10  2  0
 10  5  1  0
  8 11  2  0
 11 12  1  0
 12 13  1  0
 13 14  1  0
 14  9  1  0
  1 15  1  0
  2 16  1  0
 12 17  2  0
 14 18  2  0
  7 19  1  0
 19 20  1  0
 20 21  1  1
 20 22  1  0
 22 23  1  6
 22 24  1  0
 24 25  1  0
 25 26  1  0
 24 27  1  6
 26 28  1  0
 28 29  1  0
 28 30  1  0
 28 31  2  0
M  END
$$$$
