
     RDKit          2D

  5  4  0  0  0  0  0  0  0  0999 V2000
    0.1787    1.3835    0.0000 C   0  0  0  0  0  0  0  0  0  0  0  0
   -0.5357    0.9710    0.0000 C   0  0  0  0  0  0  0  0  0  0  0  0
    0.8933    0.9710    0.0000 C   0  0  0  0  0  0  0  0  0  0  0  0
    1.6077    1.3835    0.0000 O   0  0  0  0  0  0  0  0  0  0  0  0
    0.8933    0.1459    0.0000 O   0  0  0  0  0  0  0  0  0  0  0  0
  2  1  1  0
  1  3  1  0
  3  4  2  0
  3  5  1  0
M  END
$$$$
