
     RDKit          2D

 53 58  0  0  1  0  0  0  0  0999 V2000
   -3.5724   -0.4125    0.0000 C   0  0  0  0  0  0  0  0  0  0  0  0
   -2.8579   -0.8250    0.0000 C   0  0  0  0  0  0  0  0  0  0  0  0
   -2.8579   -1.6500    0.0000 C   0  0  0  0  0  0  0  0  0  0  0  0
   -2.1434   -2.0625    0.0000 C   0  0  0  0  0  0  0  0  0  0  0  0
   -1.4289   -1.6500    0.0000 C   0  0  0  0  0  0  0  0  0  0  0  0
   -1.4289   -0.8250    0.0000 C   0  0  0  0  0  0  0  0  0  0  0  0
   -2.1434   -0.4125    0.0000 C   0  0  0  0  0  0  0  0  0  0  0  0
   -2.1434    0.4125    0.0000 C   0  0  0  0  0  0  0  0  0  0  0  0
   -0.7145   -2.0625    0.0000 N   0  0  0  0  0  0  0  0  0  0  0  0
    0.0000   -1.6500    0.0000 C   0  0  0  0  0  0  0  0  0  0  0  0
    0.7145   -2.0625    0.0000 C   0  0  0  0  0  0  0  0  0  0  0  0
    0.7145   -2.8875    0.0000 O   0  0  0  0  0  0  0  0  0  0  0  0
    1.4289   -1.6500    0.0000 C   0  0  0  0  0  0  0  0  0  0  0  0
    1.4289   -0.8250    0.0000 O   0  0  0  0  0  0  0  0  0  0  0  0
    2.1434   -2.0625    0.0000 C   0  0  0  0  0  0  0  0  0  0  0  0
    2.1434   -2.8875    0.0000 O   0  0  0  0  0  0  0  0  0  0  0  0
    2.8579   -1.6500    0.0000 C   0  0  0  0  0  0  0  0  0  0  0  0
    3.5724   -2.0625    0.0000 O   0  0  0  0  0  0  0  0  0  0  0  0
    4.2868   -1.6500    0.0000 P   0  0  0  0  0  0  0  0  0  0  0  0
    4.6993   -2.3645    0.0000 O   0  0  0  0  0  0  0  0  0  0  0  0
    3.8743   -0.9355    0.0000 O   0  0  0  0  0  0  0  0  0  0  0  0
    5.0013   -1.2375    0.0000 O   0  0  0  0  0  0  0  0  0  0  0  0
    5.7158   -1.6500    0.0000 P   0  0  0  0  0  0  0  0  0  0  0  0
    5.3033   -2.3645    0.0000 O   0  0  0  0  0  0  0  0  0  0  0  0
    6.1283   -0.9355    0.0000 O   0  0  0  0  0  0  0  0  0  0  0  0
    6.4302   -2.0625    0.0000 O   0  0  0  0  0  0  0  0  0  0  0  0
    7.1447   -1.6500    0.0000 C   0  0  0  0  0  0  0  0  0  0  0  0
    7.8592   -2.0625    0.0000 C   0  0  0  0  0  0  0  0  0  0  0  0
    8.6129   -1.7269    0.0000 O   0  0  0  0  0  0  0  0  0  0  0  0
    9.1649   -2.3400    0.0000 C   0  0  0  0  0  0  0  0  0  0  0  0
    8.7524   -3.0545    0.0000 C   0  0  0  0  0  0  0  0  0  0  0  0
    9.0879   -3.8082    0.0000 O   0  0  0  0  0  0  0  0  0  0  0  0
    7.9454   -2.8830    0.0000 C   0  0  0  0  0  0  0  0  0  0  0  0
    7.3323   -3.4350    0.0000 O   0  0  0  0  0  0  0  0  0  0  0  0
    9.9854   -2.2538    0.0000 N   0  0  0  0  0  0  0  0  0  0  0  0
   10.5374   -2.8669    0.0000 C   0  0  0  0  0  0  0  0  0  0  0  0
   11.2911   -2.5313    0.0000 N   0  0  0  0  0  0  0  0  0  0  0  0
   11.2048   -1.7109    0.0000 C   0  0  0  0  0  0  0  0  0  0  0  0
   10.3979   -1.5393    0.0000 C   0  0  0  0  0  0  0  0  0  0  0  0
   10.1429   -0.7547    0.0000 N   0  0  0  0  0  0  0  0  0  0  0  0
   10.6950   -0.1416    0.0000 C   0  0  0  0  0  0  0  0  0  0  0  0
   11.5019   -0.3131    0.0000 N   0  0  0  0  0  0  0  0  0  0  0  0
   11.7569   -1.0978    0.0000 C   0  0  0  0  0  0  0  0  0  0  0  0
   12.5638   -1.2693    0.0000 N   0  0  0  0  0  0  0  0  0  0  0  0
   -0.7145   -2.8875    0.0000 C   0  0  0  0  0  0  0  0  0  0  0  0
    0.0000   -3.3000    0.0000 N   0  0  0  0  0  0  0  0  0  0  0  0
    0.0000   -4.1250    0.0000 C   0  0  0  0  0  0  0  0  0  0  0  0
    0.7145   -4.5375    0.0000 O   0  0  0  0  0  0  0  0  0  0  0  0
   -0.7145   -4.5375    0.0000 N   0  0  0  0  0  0  0  0  0  0  0  0
   -1.4289   -4.1250    0.0000 C   0  0  0  0  0  0  0  0  0  0  0  0
   -2.1434   -4.5375    0.0000 O   0  0  0  0  0  0  0  0  0  0  0  0
   -1.4289   -3.3000    0.0000 C   0  0  0  0  0  0  0  0  0  0  0  0
   -2.1434   -2.8875    0.0000 N   0  0  0  0  0  0  0  0  0  0  0  0
  1  2  1  0
  2  3  2  0
  3  4  1  0
  4  5  2  0
  5  6  1  0
  6  7  2  0
  2  7  1  0
  7  8  1  0
  5  9  1  0
  9 10  1  0
 10 11  1  0
 11 12  1  1
 11 13  1  0
 13 14  1  6
 13 15  1  0
 15 16  1  1
 15 17  1  0
 17 18  1  0
 19 18  1  0
 19 20  1  1
 19 21  2  0
 19 22  1  0
 23 22  1  0
 23 24  1  6
 23 25  2  0
 23 26  1  0
 26 27  1  0
 28 27  1  1
 28 29  1  0
 29 30  1  0
 30 31  1  0
 31 32  1  6
 31 33  1  0
 28 33  1  0
 33 34  1  6
 30 35  1  1
 35 36  1  0
 36 37  2  0
 37 38  1  0
 38 39  2  0
 35 39  1  0
 39 40  1  0
 40 41  2  0
 41 42  1  0
 42 43  2  0
 38 43  1  0
 43 44  1  0
  9 45  1  0
 45 46  2  0
 46 47  1  0
 47 48  2  0
 47 49  1  0
 49 50  1  0
 50 51  2  0
 50 52  1  0
 45 52  1  0
 52 53  2  0
  4 53  1  0
M  END
$$$$
