
     RDKit          2D

 31 33  0  0  1  0  0  0  0  0999 V2000
    0.6052    1.7431    0.0000 C   0  0  0  0  0  0  0  0  0  0  0  0
    2.8805   -0.1730    0.0000 C   0  0  0  0  0  0  0  0  0  0  0  0
   -0.7376    5.7111    0.0000 C   0  0  0  0  0  0  0  0  0  0  0  0
    0.1203    2.4105    0.0000 C   0  0  0  0  0  0  0  0  0  0  0  0
    1.4257    1.8293    0.0000 C   0  0  0  0  0  0  0  0  0  0  0  0
    3.2160    0.5807    0.0000 C   0  0  0  0  0  0  0  0  0  0  0  0
    0.0470    5.4562    0.0000 C   0  0  0  0  0  0  0  0  0  0  0  0
    3.8871    2.0880    0.0000 C   0  0  0  0  0  0  0  0  0  0  0  0
    0.4559    3.1642    0.0000 C   0  0  0  0  0  0  0  0  0  0  0  0
    4.0365    0.6669    0.0000 C   0  0  0  0  0  0  0  0  0  0  0  0
    0.7145    5.9411    0.0000 C   0  0  0  0  0  0  0  0  0  0  0  0
    4.3721    1.4206    0.0000 C   0  0  0  0  0  0  0  0  0  0  0  0
    1.3819    5.4562    0.0000 C   0  0  0  0  0  0  0  0  0  0  0  0
    1.7613    2.5830    0.0000 C   0  0  0  0  0  0  0  0  0  0  0  0
    1.2763    3.2504    0.0000 C   0  0  0  0  0  0  0  0  0  0  0  0
    3.0667    2.0018    0.0000 C   0  0  0  0  0  0  0  0  0  0  0  0
    1.1270    4.6715    0.0000 C   0  0  0  0  0  0  0  0  0  0  0  0
    2.0600   -0.2593    0.0000 N   0  0  0  0  0  0  0  0  0  0  0  0
   -0.7002    2.3243    0.0000 N   0  0  0  0  0  0  0  0  0  0  0  0
    1.9106    1.1619    0.0000 N   0  0  0  0  0  0  0  0  0  0  0  0
    4.2227    2.8417    0.0000 N   0  0  0  0  0  0  0  0  0  0  0  0
   -0.9091    6.5181    0.0000 O   0  0  0  0  0  0  0  0  0  0  0  0
   -0.0291    3.8316    0.0000 O   0  0  0  0  0  0  0  0  0  0  0  0
    4.5214   -0.0005    0.0000 O   0  0  0  0  0  0  0  0  0  0  0  0
    0.7145    6.7661    0.0000 O   0  0  0  0  0  0  0  0  0  0  0  0
    5.1925    1.5068    0.0000 O   0  0  0  0  0  0  0  0  0  0  0  0
    2.1665    5.7111    0.0000 O   0  0  0  0  0  0  0  0  0  0  0  0
    2.7311    1.2481    0.0000 O   0  0  0  0  0  0  0  0  0  0  0  0
    0.3020    4.6715    0.0000 O   0  0  0  0  0  0  0  0  0  0  0  0
    2.5817    2.6692    0.0000 O   0  0  0  0  0  0  0  0  0  0  0  0
    1.6119    4.0041    0.0000 O   0  0  0  0  0  0  0  0  0  0  0  0
  4  1  1  0
  5  1  1  0
  6  2  1  1
  7  3  1  6
  9  4  1  0
 10  6  1  0
 11  7  1  0
 12  8  1  0
 12 10  1  0
 13 11  1  0
 14  5  1  0
 15  9  1  0
 15 14  1  0
 16  8  1  0
 17 13  1  0
 18  2  1  0
  4 19  1  1
  5 20  1  1
  8 21  1  6
 22  3  1  0
  9 23  1  6
 10 24  1  6
 11 25  1  1
 12 26  1  1
 13 27  1  1
 28  6  1  0
 28 16  1  0
 29  7  1  0
 29 17  1  0
 14 30  1  6
 16 30  1  6
 15 31  1  1
 17 31  1  6
M  END
$$$$
