
     RDKit          2D

 24 23  0  0  0  0  0  0  0  0999 V2000
   14.4362   -9.3843    0.0000 C   0  0  0  0  0  0  0  0  0  0  0  0
   15.1507   -8.9718    0.0000 C   0  0  0  0  0  0  0  0  0  0  0  0
   14.4362  -10.2093    0.0000 C   0  0  0  0  0  0  0  0  0  0  0  0
   15.8651   -9.3843    0.0000 C   0  0  0  0  0  0  0  0  0  0  0  0
   16.5796   -8.9718    0.0000 C   0  0  0  0  0  0  0  0  0  0  0  0
   17.2941   -9.3843    0.0000 C   0  0  0  0  0  0  0  0  0  0  0  0
   17.2941  -10.7485    0.0000 C   0  0  0  0  0  0  0  0  0  0  0  0
   18.0086  -11.1610    0.0000 C   0  0  0  0  0  0  0  0  0  0  0  0
   18.0086  -12.4443    0.0000 C   0  0  0  0  0  0  0  0  0  0  0  0
   17.2941  -12.8568    0.0000 C   0  0  0  0  0  0  0  0  0  0  0  0
   17.2941  -14.2480    0.0000 C   0  0  0  0  0  0  0  0  0  0  0  0
   16.5796  -14.6605    0.0000 C   0  0  0  0  0  0  0  0  0  0  0  0
   15.8651  -14.2480    0.0000 C   0  0  0  0  0  0  0  0  0  0  0  0
   15.1507  -14.6605    0.0000 C   0  0  0  0  0  0  0  0  0  0  0  0
   14.4362  -14.2480    0.0000 C   0  0  0  0  0  0  0  0  0  0  0  0
   14.4362  -13.4230    0.0000 C   0  0  0  0  0  0  0  0  0  0  0  0
   13.7218  -13.0105    0.0000 C   0  0  0  0  0  0  0  0  0  0  0  0
   13.7218  -12.1855    0.0000 C   0  0  0  0  0  0  0  0  0  0  0  0
   14.4362  -11.7730    0.0000 C   0  0  0  0  0  0  0  0  0  0  0  0
   15.1507  -12.1855    0.0000 C   0  0  0  0  0  0  0  0  0  0  0  0
   15.8651  -11.7730    0.0000 C   0  0  0  0  0  0  0  0  0  0  0  0
   16.5796  -12.1855    0.0000 O   0  0  0  0  0  0  0  0  0  0  0  0
   15.8651  -10.9480    0.0000 O   0  0  0  0  0  0  0  0  0  0  0  0
   13.7218  -10.6218    0.0000 C   0  0  0  0  0  0  0  0  0  0  0  0
  1  2  2  0
  1  3  1  0
  2  4  1  0
  4  5  1  0
  5  6  2  0
  6  7  1  0
  7  8  1  0
  8  9  2  0
  9 10  1  0
 10 11  1  0
 11 12  2  0
 12 13  1  0
 13 14  1  0
 14 15  2  0
 15 16  1  0
 16 17  1  0
 17 18  2  0
 18 19  1  0
 19 20  1  0
 20 21  1  0
 21 22  1  0
 21 23  2  0
  3 24  1  0
M  END
$$$$
