
     RDKit          2D

 92103  0  0  1  0  0  0  0  0999 V2000
   -2.1071    0.1268    0.0000 C   0  0  0  0  0  0  0  0  0  0  0  0
   -1.3344   -0.1621    0.0000 C   0  0  0  0  0  0  0  0  0  0  0  0
   -0.4691    0.2621    0.0000 C   0  0  0  0  0  0  0  0  0  0  0  0
    0.4424    0.4908    0.0000 C   0  0  0  0  0  0  0  0  0  0  0  0
    0.6686    1.2842    0.0000 N   0  0  0  0  0  0  0  0  0  0  0  0
    1.2551    0.3488    0.0000 O   0  0  0  0  0  0  0  0  0  0  0  0
   -1.3704   -0.9863    0.0000 C   0  0  0  0  0  0  0  0  0  0  0  0
   -1.3333   -1.8754    0.0000 C   0  0  0  0  0  0  0  0  0  0  0  0
   -0.7248   -1.5000    0.0000 C   0  0  0  0  0  0  0  0  0  0  0  0
    0.0428   -1.1976    0.0000 C   0  0  0  0  0  0  0  0  0  0  0  0
    0.6884   -1.7112    0.0000 C   0  0  0  0  0  0  0  0  0  0  0  0
    0.5838   -2.5699    0.0000 O   0  0  0  0  0  0  0  0  0  0  0  0
    1.4560   -1.4089    0.0000 N   0  0  0  0  0  0  0  0  0  0  0  0
    2.1017   -1.9225    0.0000 C   0  0  0  0  0  0  0  0  0  0  0  0
    2.8693   -1.6202    0.0000 C   0  0  0  0  0  0  0  0  0  0  0  0
    2.6471   -2.4528    0.0000 C   0  0  0  0  0  0  0  0  0  0  0  0
    3.5149   -2.1338    0.0000 O   0  0  0  0  0  0  0  0  0  0  0  0
    4.2825   -1.8314    0.0000 P   0  0  0  0  0  0  0  0  0  0  0  0
    4.1256   -2.6914    0.0000 O   0  0  0  0  0  0  0  0  0  0  0  0
    4.6352   -2.6316    0.0000 O   0  0  0  0  0  0  0  0  0  0  0  0
    4.9282   -2.3450    0.0000 O   0  0  0  0  0  0  0  0  0  0  0  0
    5.6958   -2.0427    0.0000 C   0  0  0  0  0  0  0  0  0  0  0  0
    5.9024   -1.2440    0.0000 C   0  0  0  0  0  0  0  0  0  0  0  0
    5.3438   -0.5911    0.0000 O   0  0  0  0  0  0  0  0  0  0  0  0
    6.7258   -1.1937    0.0000 C   0  0  0  0  0  0  0  0  0  0  0  0
    7.0282   -1.9613    0.0000 O   0  0  0  0  0  0  0  0  0  0  0  0
    6.3915   -2.4860    0.0000 C   0  0  0  0  0  0  0  0  0  0  0  0
    6.5251   -3.3682    0.0000 C   0  0  0  0  0  0  0  0  0  0  0  0
    7.2392   -3.8444    0.0000 O   0  0  0  0  0  0  0  0  0  0  0  0
    7.1691   -0.4979    0.0000 N   0  0  0  0  0  0  0  0  0  0  0  0
    6.8668    0.2697    0.0000 C   0  0  0  0  0  0  0  0  0  0  0  0
    7.5034    0.7944    0.0000 N   0  0  0  0  0  0  0  0  0  0  0  0
    8.1992    0.3511    0.0000 C   0  0  0  0  0  0  0  0  0  0  0  0
    8.9942    0.5716    0.0000 C   0  0  0  0  0  0  0  0  0  0  0  0
    9.5826   -0.0067    0.0000 C   0  0  0  0  0  0  0  0  0  0  0  0
   10.4100    0.2069    0.0000 C   0  0  0  0  0  0  0  0  0  0  0  0
    9.3760   -0.8054    0.0000 C   0  0  0  0  0  0  0  0  0  0  0  0
    9.9997   -1.4024    0.0000 C   0  0  0  0  0  0  0  0  0  0  0  0
    8.5810   -1.0258    0.0000 C   0  0  0  0  0  0  0  0  0  0  0  0
    7.9926   -0.4476    0.0000 C   0  0  0  0  0  0  0  0  0  0  0  0
   -1.6042   -0.2738    0.0000 Co  0  0  0  0  0  6  0  0  0  0  0  0
   -1.3080    0.6061    0.0000 C   0  0  0  0  0  0  0  0  0  0  0  0
   -2.6207   -0.5188    0.0000 N   0  0  0  0  0  0  0  0  0  0  0  0
   -2.1654   -1.2068    0.0000 C   0  0  0  0  0  0  0  0  0  0  0  0
   -2.6912   -2.1312    0.0000 C   0  0  0  0  0  0  0  0  0  0  0  0
   -2.2779   -2.9295    0.0000 C   0  0  0  0  0  0  0  0  0  0  0  0
   -3.4230   -2.5121    0.0000 C   0  0  0  0  0  0  0  0  0  0  0  0
   -4.0114   -1.9338    0.0000 N   0  0  0  0  0  0  0  0  0  0  0  0
   -4.7432   -2.3148    0.0000 C   0  0  0  0  0  0  0  0  0  0  0  0
   -5.6076   -1.6952    0.0000 C   0  0  0  0  0  0  0  0  0  0  0  0
   -5.9100   -0.9276    0.0000 C   0  0  0  0  0  0  0  0  0  0  0  0
   -5.2733   -0.4029    0.0000 N   0  0  0  0  0  0  0  0  0  0  0  0
   -5.5757    0.3647    0.0000 C   0  0  0  0  0  0  0  0  0  0  0  0
   -4.8692    1.1596    0.0000 C   0  0  0  0  0  0  0  0  0  0  0  0
   -5.2096    1.9228    0.0000 C   0  0  0  0  0  0  0  0  0  0  0  0
   -4.0742    1.3801    0.0000 C   0  0  0  0  0  0  0  0  0  0  0  0
   -3.6189    0.6921    0.0000 N   0  0  0  0  0  0  0  0  0  0  0  0
   -2.8238    0.9125    0.0000 C   0  0  0  0  0  0  0  0  0  0  0  0
   -2.2290    1.4405    0.0000 C   0  0  0  0  0  0  0  0  0  0  0  0
   -2.7878    1.7368    0.0000 C   0  0  0  0  0  0  0  0  0  0  0  0
   -1.9567    2.2051    0.0000 C   0  0  0  0  0  0  0  0  0  0  0  0
   -2.4754    2.6225    0.0000 C   0  0  0  0  0  0  0  0  0  0  0  0
   -1.8197    3.3110    0.0000 C   0  0  0  0  0  0  0  0  0  0  0  0
   -2.0526    4.1024    0.0000 N   0  0  0  0  0  0  0  0  0  0  0  0
   -1.0179    3.1169    0.0000 O   0  0  0  0  0  0  0  0  0  0  0  0
   -3.5606    2.0257    0.0000 C   0  0  0  0  0  0  0  0  0  0  0  0
   -3.9320    2.8384    0.0000 C   0  0  0  0  0  0  0  0  0  0  0  0
   -4.6451    3.2808    0.0000 C   0  0  0  0  0  0  0  0  0  0  0  0
   -4.6190    4.1054    0.0000 C   0  0  0  0  0  0  0  0  0  0  0  0
   -3.8919    4.4951    0.0000 N   0  0  0  0  0  0  0  0  0  0  0  0
   -5.3201    4.5403    0.0000 O   0  0  0  0  0  0  0  0  0  0  0  0
   -6.3991    0.3144    0.0000 C   0  0  0  0  0  0  0  0  0  0  0  0
   -6.5360    1.1961    0.0000 C   0  0  0  0  0  0  0  0  0  0  0  0
   -7.1290    0.8732    0.0000 C   0  0  0  0  0  0  0  0  0  0  0  0
   -7.8305    1.4331    0.0000 C   0  0  0  0  0  0  0  0  0  0  0  0
   -8.5986    1.1320    0.0000 N   0  0  0  0  0  0  0  0  0  0  0  0
   -7.7073    2.2488    0.0000 O   0  0  0  0  0  0  0  0  0  0  0  0
   -6.6057   -0.4843    0.0000 C   0  0  0  0  0  0  0  0  0  0  0  0
   -7.3614   -0.9022    0.0000 C   0  0  0  0  0  0  0  0  0  0  0  0
   -7.6365   -1.7242    0.0000 C   0  0  0  0  0  0  0  0  0  0  0  0
   -8.4450   -1.8885    0.0000 C   0  0  0  0  0  0  0  0  0  0  0  0
   -8.7068   -2.6709    0.0000 N   0  0  0  0  0  0  0  0  0  0  0  0
   -8.9916   -1.2706    0.0000 O   0  0  0  0  0  0  0  0  0  0  0  0
   -4.6071   -3.1284    0.0000 C   0  0  0  0  0  0  0  0  0  0  0  0
   -4.8263   -3.9898    0.0000 C   0  0  0  0  0  0  0  0  0  0  0  0
   -5.4671   -3.2715    0.0000 C   0  0  0  0  0  0  0  0  0  0  0  0
   -3.7912   -3.2504    0.0000 C   0  0  0  0  0  0  0  0  0  0  0  0
   -3.3855   -4.0132    0.0000 C   0  0  0  0  0  0  0  0  0  0  0  0
   -3.6059   -4.8924    0.0000 C   0  0  0  0  0  0  0  0  0  0  0  0
   -3.0131   -5.4662    0.0000 C   0  0  0  0  0  0  0  0  0  0  0  0
   -2.2198   -5.2398    0.0000 N   0  0  0  0  0  0  0  0  0  0  0  0
   -3.2137   -6.2665    0.0000 O   0  0  0  0  0  0  0  0  0  0  0  0
  1  2  1  0
  2  3  1  6
  3  4  1  0
  4  5  1  0
  4  6  2  0
  2  7  1  0
  7  8  1  6
  7  9  1  0
  9 10  1  0
 10 11  1  0
 11 12  2  0
 11 13  1  0
 13 14  1  0
 14 15  1  0
 15 16  1  1
 15 17  1  0
 17 18  1  0
 18 19  1  0
 18 20  2  0
 18 21  1  0
 22 21  1  1
 22 23  1  0
 23 24  1  1
 23 25  1  0
 25 26  1  1
 26 27  1  0
 22 27  1  0
 27 28  1  6
 28 29  1  0
 25 30  1  0
 30 31  1  0
 31 32  2  0
 32 33  1  0
 33 34  2  0
 34 35  1  0
 35 36  1  0
 35 37  2  0
 37 38  1  0
 37 39  1  0
 39 40  2  0
 30 40  1  0
 33 40  1  0
 32 41  1  0
 41 42  1  0
 41 43  1  0
  1 43  1  1
 43 44  1  0
  7 44  1  0
 44 45  2  0
 45 46  1  0
 45 47  1  0
 47 48  2  0
 41 48  1  0
 48 49  1  0
 49 50  2  0
 50 51  1  0
 51 52  2  0
 41 52  1  0
 52 53  1  0
 53 54  2  0
 54 55  1  0
 54 56  1  0
 56 57  2  0
 41 57  1  0
 57 58  1  0
  1 58  1  0
 58 59  1  1
 58 60  1  0
 60 61  1  1
 60 62  1  0
 62 63  1  0
 63 64  1  0
 63 65  2  0
 60 66  1  0
 56 66  1  0
 66 67  1  1
 67 68  1  0
 68 69  1  0
 69 70  1  0
 69 71  2  0
 53 72  1  0
 72 73  1  1
 72 74  1  0
 74 75  1  0
 75 76  1  0
 75 77  2  0
 72 78  1  0
 51 78  1  0
 78 79  1  1
 79 80  1  0
 80 81  1  0
 81 82  1  0
 81 83  2  0
 49 84  1  0
 84 85  1  0
 84 86  1  0
 84 87  1  0
 47 87  1  0
 87 88  1  1
 88 89  1  0
 89 90  1  0
 90 91  1  0
 90 92  2  0
M  CHG  6  19  -1  32   1  41  -3  48   1  52   1  57   1
M  END
$$$$
