
     RDKit          2D

 13 14  0  0  0  0  0  0  0  0999 V2000
    1.0907    1.1736    0.0000 C   0  0  0  0  0  0  0  0  0  0  0  0
    0.3473    0.8156    0.0000 C   0  0  0  0  0  0  0  0  0  0  0  0
    0.1637    0.0114    0.0000 C   0  0  0  0  0  0  0  0  0  0  0  0
    0.6781   -0.6335    0.0000 C   0  0  0  0  0  0  0  0  0  0  0  0
    1.5031   -0.6335    0.0000 C   0  0  0  0  0  0  0  0  0  0  0  0
    2.0175    0.0114    0.0000 N   0  0  0  0  0  0  0  0  0  0  0  0
    1.8340    0.8156    0.0000 C   0  0  0  0  0  0  0  0  0  0  0  0
   -0.2573    1.3769    0.0000 C   0  0  0  0  0  0  0  0  0  0  0  0
   -1.0457    1.1336    0.0000 C   0  0  0  0  0  0  0  0  0  0  0  0
   -1.2292    0.3293    0.0000 C   0  0  0  0  0  0  0  0  0  0  0  0
   -0.6244   -0.2318    0.0000 C   0  0  0  0  0  0  0  0  0  0  0  0
    0.3202   -1.3769    0.0000 C   0  0  0  0  0  0  0  0  0  0  0  0
   -2.0176    0.0861    0.0000 Cl  0  0  0  0  0  0  0  0  0  0  0  0
  1  2  1  0
  7  1  1  0
  3  4  1  0
  4  5  1  0
  5  6  1  0
  6  7  1  0
  2  8  2  0
  3  2  1  0
 11  3  2  0
  8  9  1  0
  9 10  2  0
 10 11  1  0
  4 12  1  6
 10 13  1  0
M  END
$$$$
