
     RDKit          2D

 29 32  0  0  1  0  0  0  0  0999 V2000
    1.6500    1.3710    0.0000 F   0  0  0  0  0  0  0  0  0  0  0  0
   13.1905    1.3710    0.0000 F   0  0  0  0  0  0  0  0  0  0  0  0
    4.5623   -0.2989    0.0000 O   0  0  0  0  0  0  0  0  0  0  0  0
   10.2781   -0.2989    0.0000 O   0  0  0  0  0  0  0  0  0  0  0  0
    5.9913   -1.1239    0.0000 O   0  0  0  0  0  0  0  0  0  0  0  0
    8.8492   -1.1239    0.0000 O   0  0  0  0  0  0  0  0  0  0  0  0
    7.4202   -0.2989    0.0000 N   0  0  0  0  0  0  0  0  0  0  0  0
    5.2769    0.1136    0.0000 C   0  0  0  0  0  0  0  0  0  0  0  0
    9.5636    0.1136    0.0000 C   0  0  0  0  0  0  0  0  0  0  0  0
    5.9913   -0.2989    0.0000 C   0  0  0  0  0  0  0  0  0  0  0  0
    8.8492   -0.2989    0.0000 C   0  0  0  0  0  0  0  0  0  0  0  0
    5.2769    0.9386    0.0000 C   0  0  0  0  0  0  0  0  0  0  0  0
    9.5636    0.9386    0.0000 C   0  0  0  0  0  0  0  0  0  0  0  0
    6.7058    0.1136    0.0000 C   0  0  0  0  0  0  0  0  0  0  0  0
    8.1347    0.1136    0.0000 C   0  0  0  0  0  0  0  0  0  0  0  0
    4.5623    1.3511    0.0000 C   0  0  0  0  0  0  0  0  0  0  0  0
   10.2781    1.3511    0.0000 C   0  0  0  0  0  0  0  0  0  0  0  0
    3.8479    0.9386    0.0000 C   0  0  0  0  0  0  0  0  0  0  0  0
   10.9926    0.9386    0.0000 C   0  0  0  0  0  0  0  0  0  0  0  0
    3.8479    0.1136    0.0000 C   0  0  0  0  0  0  0  0  0  0  0  0
   10.9926    0.1136    0.0000 C   0  0  0  0  0  0  0  0  0  0  0  0
    3.1104    1.3796    0.0000 C   0  0  0  0  0  0  0  0  0  0  0  0
   11.7301    1.3796    0.0000 C   0  0  0  0  0  0  0  0  0  0  0  0
    3.1104   -0.3275    0.0000 C   0  0  0  0  0  0  0  0  0  0  0  0
   11.7301   -0.3275    0.0000 C   0  0  0  0  0  0  0  0  0  0  0  0
    2.3629    0.9558    0.0000 C   0  0  0  0  0  0  0  0  0  0  0  0
   12.4776    0.9558    0.0000 C   0  0  0  0  0  0  0  0  0  0  0  0
    2.3629    0.0964    0.0000 C   0  0  0  0  0  0  0  0  0  0  0  0
   12.4776    0.0964    0.0000 C   0  0  0  0  0  0  0  0  0  0  0  0
  1 26  1  0
  2 27  1  0
  3  8  1  0
  3 20  1  0
  4  9  1  0
  4 21  1  0
  5 10  1  0
  6 11  1  0
  7 14  1  0
  7 15  1  0
  8 10  1  0
  8 12  1  0
  9 11  1  0
  9 13  1  0
 10 14  1  0
 11 15  1  0
 12 16  1  0
 13 17  1  0
 16 18  1  0
 17 19  1  0
 18 20  2  0
 18 22  1  0
 19 21  2  0
 19 23  1  0
 20 24  1  0
 21 25  1  0
 22 26  2  0
 23 27  2  0
 24 28  2  0
 25 29  2  0
 26 28  1  0
 27 29  1  0
M  END
$$$$
