
     RDKit          2D

 37 41  0  0  1  0  0  0  0  0999 V2000
    4.7191   -1.7208    0.0000 C   0  0  0  0  0  0  0  0  0  0  0  0
    3.6582   -0.7636    0.0000 C   0  0  0  0  0  0  0  0  0  0  0  0
    1.3959   -2.9981    0.0000 C   0  0  0  0  0  0  0  0  0  0  0  0
    0.0367    3.4488    0.0000 C   0  0  0  0  0  0  0  0  0  0  0  0
   -0.7882    3.4371    0.0000 C   0  0  0  0  0  0  0  0  0  0  0  0
    0.4593    2.7403    0.0000 C   0  0  0  0  0  0  0  0  0  0  0  0
   -1.1905    2.7169    0.0000 C   0  0  0  0  0  0  0  0  0  0  0  0
    0.0570    2.0200    0.0000 C   0  0  0  0  0  0  0  0  0  0  0  0
    0.7400   -1.2658    0.0000 C   0  0  0  0  0  0  0  0  0  0  0  0
    0.1197   -1.6427    0.0000 C   0  0  0  0  0  0  0  0  0  0  0  0
   -3.6653    2.6817    0.0000 C   0  0  0  0  0  0  0  0  0  0  0  0
   -3.6450    1.2529    0.0000 C   0  0  0  0  0  0  0  0  0  0  0  0
   -0.7476    0.5795    0.0000 C   0  0  0  0  0  0  0  0  0  0  0  0
   -4.4902    2.6700    0.0000 C   0  0  0  0  0  0  0  0  0  0  0  0
   -4.4699    1.2412    0.0000 C   0  0  0  0  0  0  0  0  0  0  0  0
    0.0773    0.5912    0.0000 C   0  0  0  0  0  0  0  0  0  0  0  0
    1.9893   -0.5417    0.0000 C   0  0  0  0  0  0  0  0  0  0  0  0
    1.6113   -0.9304    0.0000 C   0  0  0  0  0  0  0  0  0  0  0  0
    3.9123   -1.5485    0.0000 C   0  0  0  0  0  0  0  0  0  0  0  0
    2.2030   -2.8273    0.0000 C   0  0  0  0  0  0  0  0  0  0  0  0
   -0.7679    2.0083    0.0000 C   0  0  0  0  0  0  0  0  0  0  0  0
   -3.2427    1.9732    0.0000 C   0  0  0  0  0  0  0  0  0  0  0  0
    1.0605   -0.5572    0.0000 C   0  0  0  0  0  0  0  0  0  0  0  0
    0.6396   -0.9304    0.0000 C   0  0  0  0  0  0  0  0  0  0  0  0
    2.1275   -1.3591    0.0000 C   0  0  0  0  0  0  0  0  0  0  0  0
   -1.1702    1.2881    0.0000 C   0  0  0  0  0  0  0  0  0  0  0  0
    3.3597   -2.1610    0.0000 C   0  0  0  0  0  0  0  0  0  0  0  0
   -2.4178    1.9849    0.0000 C   0  0  0  0  0  0  0  0  0  0  0  0
   -4.8925    1.9497    0.0000 C   0  0  0  0  0  0  0  0  0  0  0  0
   -5.6264    2.3267    0.0000 F   0  0  0  0  0  0  0  0  0  0  0  0
   -5.6154    1.5521    0.0000 F   0  0  0  0  0  0  0  0  0  0  0  0
   -1.9951    1.2763    0.0000 N   0  0  0  0  0  0  0  0  0  0  0  0
    2.8155   -3.3800    0.0000 N   0  0  0  0  0  0  0  0  0  0  0  0
    3.5304   -2.9682    0.0000 N   0  0  0  0  0  0  0  0  0  0  0  0
    0.4999   -0.1173    0.0000 N   0  0  0  0  0  0  0  0  0  0  0  0
    2.5393   -2.0740    0.0000 N   0  0  0  0  0  0  0  0  0  0  0  0
   -2.0154    2.7051    0.0000 O   0  0  0  0  0  0  0  0  0  0  0  0
  5  4  2  0
  6  4  1  0
  7  5  1  0
  8  6  2  0
 10  9  1  0
 14 11  1  0
 15 12  1  0
 16 13  1  0
 19  1  1  0
 19  2  1  0
 20  3  1  0
 21  7  2  0
 21  8  1  0
 22 11  1  0
 22 12  1  0
 23  9  1  6
 23 17  1  0
 24 10  1  1
 24 18  1  0
 25 17  1  0
 25 18  1  0
 26 13  1  6
 26 21  1  0
 27 19  1  0
 28 22  1  0
 29 14  1  0
 29 15  1  0
 30 29  1  0
 31 29  1  0
 26 32  1  0
 32 28  2  3
 33 20  2  0
 34 27  2  0
 34 33  1  0
 35 16  1  0
 35 23  1  0
 35 24  1  0
 36 20  1  0
 25 36  1  6
 36 27  1  0
 28 37  1  0
M  END
$$$$
