
     RDKit          2D

 16 17  0  0  1  0  0  0  0  0999 V2000
    4.5080   -0.8410    0.0000 Cl  0  0  0  0  0  0  0  0  0  0  0  0
    1.6500   -0.8410    0.0000 Cl  0  0  0  0  0  0  0  0  0  0  0  0
    3.0791   -0.0160    0.0000 O   0  0  0  0  0  0  0  0  0  0  0  0
    3.1261    1.7065    0.0000 N   0  0  0  0  0  0  0  0  0  0  0  0
    4.4610    1.7065    0.0000 N   0  0  0  0  0  0  0  0  0  0  0  0
    3.7935    0.3965    0.0000 C   0  0  0  0  0  0  0  0  0  0  0  0
    3.7935    1.2215    0.0000 C   0  0  0  0  0  0  0  0  0  0  0  0
    3.3810    2.4911    0.0000 C   0  0  0  0  0  0  0  0  0  0  0  0
    4.2060    2.4911    0.0000 C   0  0  0  0  0  0  0  0  0  0  0  0
    4.5080   -0.0160    0.0000 C   0  0  0  0  0  0  0  0  0  0  0  0
    3.0791   -0.8410    0.0000 C   0  0  0  0  0  0  0  0  0  0  0  0
    3.7935   -1.2535    0.0000 C   0  0  0  0  0  0  0  0  0  0  0  0
    2.3645   -1.2535    0.0000 C   0  0  0  0  0  0  0  0  0  0  0  0
    3.7935   -2.0786    0.0000 C   0  0  0  0  0  0  0  0  0  0  0  0
    2.3645   -2.0786    0.0000 C   0  0  0  0  0  0  0  0  0  0  0  0
    3.0791   -2.4911    0.0000 C   0  0  0  0  0  0  0  0  0  0  0  0
  1 12  1  0
  2 13  1  0
  3  6  1  0
  3 11  1  0
  4  7  1  0
  4  8  1  0
  5  7  2  0
  5  9  1  0
  6  7  1  0
  6 10  1  0
  8  9  1  0
 11 12  2  0
 11 13  1  0
 12 14  1  0
 13 15  2  0
 14 16  2  0
 15 16  1  0
M  END
$$$$
