
     RDKit          2D

 25 27  0  0  1  0  0  0  0  0999 V2000
    4.5080   -0.5082    0.0000 O   0  0  0  0  0  0  0  0  0  0  0  0
    3.3810    0.0148    0.0000 O   0  0  0  0  0  0  0  0  0  0  0  0
    5.2224    0.7293    0.0000 O   0  0  0  0  0  0  0  0  0  0  0  0
    5.9370   -2.1582    0.0000 N   0  0  0  0  0  0  0  0  0  0  0  0
    5.2224   -1.7457    0.0000 C   0  0  0  0  0  0  0  0  0  0  0  0
    6.6515   -1.7457    0.0000 C   0  0  0  0  0  0  0  0  0  0  0  0
    5.2224   -0.9207    0.0000 C   0  0  0  0  0  0  0  0  0  0  0  0
    6.6515   -0.9207    0.0000 C   0  0  0  0  0  0  0  0  0  0  0  0
    5.9370   -0.5082    0.0000 C   0  0  0  0  0  0  0  0  0  0  0  0
    5.5245   -2.8728    0.0000 C   0  0  0  0  0  0  0  0  0  0  0  0
    6.3495   -2.8728    0.0000 C   0  0  0  0  0  0  0  0  0  0  0  0
    4.5080    0.3168    0.0000 C   0  0  0  0  0  0  0  0  0  0  0  0
    3.7935    0.7293    0.0000 C   0  0  0  0  0  0  0  0  0  0  0  0
    3.0791    1.1418    0.0000 C   0  0  0  0  0  0  0  0  0  0  0  0
    4.2060    1.4438    0.0000 C   0  0  0  0  0  0  0  0  0  0  0  0
    2.3645    0.7293    0.0000 C   0  0  0  0  0  0  0  0  0  0  0  0
    3.7935    2.1582    0.0000 C   0  0  0  0  0  0  0  0  0  0  0  0
    3.0791    1.9668    0.0000 C   0  0  0  0  0  0  0  0  0  0  0  0
    5.0310    1.4438    0.0000 C   0  0  0  0  0  0  0  0  0  0  0  0
    1.6500    1.1418    0.0000 C   0  0  0  0  0  0  0  0  0  0  0  0
    4.2060    2.8728    0.0000 C   0  0  0  0  0  0  0  0  0  0  0  0
    2.3645    2.3794    0.0000 C   0  0  0  0  0  0  0  0  0  0  0  0
    5.4436    2.1582    0.0000 C   0  0  0  0  0  0  0  0  0  0  0  0
    1.6500    1.9668    0.0000 C   0  0  0  0  0  0  0  0  0  0  0  0
    5.0310    2.8728    0.0000 C   0  0  0  0  0  0  0  0  0  0  0  0
  1  7  1  0
  1 12  1  0
  2 13  1  0
  3 12  2  0
  4  5  1  0
  4  6  1  0
  4 10  1  0
  4 11  1  0
  5  7  1  0
  6  8  1  0
  7  9  1  0
  8  9  1  0
 12 13  1  0
 13 14  1  0
 13 15  1  0
 14 16  2  0
 14 18  1  0
 15 17  2  0
 15 19  1  0
 16 20  1  0
 17 21  1  0
 18 22  2  0
 19 23  2  0
 20 24  2  0
 21 25  2  0
 22 24  1  0
 23 25  1  0
M  CHG  1   4   1
M  END
$$$$
