
     RDKit          2D

 26 28  0  0  1  0  0  0  0  0999 V2000
    3.1895   -4.2761    0.0000 Cl  0  0  0  0  0  0  0  0  0  0  0  0
    4.6185   -4.2761    0.0000 Cl  0  0  0  0  0  0  0  0  0  0  0  0
    3.4916   -0.6740    0.0000 O   0  0  0  0  0  0  0  0  0  0  0  0
    2.0625   -0.6740    0.0000 O   0  0  0  0  0  0  0  0  0  0  0  0
    4.9205    2.6260    0.0000 O   0  0  0  0  0  0  0  0  0  0  0  0
    2.3645   -2.6260    0.0000 C   0  0  0  0  0  0  0  0  0  0  0  0
    3.1895   -2.6260    0.0000 C   0  0  0  0  0  0  0  0  0  0  0  0
    2.7770   -1.9116    0.0000 C   0  0  0  0  0  0  0  0  0  0  0  0
    2.3645   -3.4511    0.0000 C   0  0  0  0  0  0  0  0  0  0  0  0
    1.6500   -2.2135    0.0000 C   0  0  0  0  0  0  0  0  0  0  0  0
    3.9041   -3.0385    0.0000 C   0  0  0  0  0  0  0  0  0  0  0  0
    2.7770   -1.0865    0.0000 C   0  0  0  0  0  0  0  0  0  0  0  0
    3.9041   -3.8636    0.0000 C   0  0  0  0  0  0  0  0  0  0  0  0
    3.4916    0.1510    0.0000 C   0  0  0  0  0  0  0  0  0  0  0  0
    4.2060    0.5635    0.0000 C   0  0  0  0  0  0  0  0  0  0  0  0
    4.2060    1.3885    0.0000 C   0  0  0  0  0  0  0  0  0  0  0  0
    4.9205    0.1510    0.0000 C   0  0  0  0  0  0  0  0  0  0  0  0
    4.9205    1.8010    0.0000 C   0  0  0  0  0  0  0  0  0  0  0  0
    5.6350    0.5635    0.0000 C   0  0  0  0  0  0  0  0  0  0  0  0
    5.6350    1.3885    0.0000 C   0  0  0  0  0  0  0  0  0  0  0  0
    5.6350    3.0385    0.0000 C   0  0  0  0  0  0  0  0  0  0  0  0
    6.3495    2.6260    0.0000 C   0  0  0  0  0  0  0  0  0  0  0  0
    5.6350    3.8636    0.0000 C   0  0  0  0  0  0  0  0  0  0  0  0
    7.0640    3.0385    0.0000 C   0  0  0  0  0  0  0  0  0  0  0  0
    6.3495    4.2761    0.0000 C   0  0  0  0  0  0  0  0  0  0  0  0
    7.0640    3.8636    0.0000 C   0  0  0  0  0  0  0  0  0  0  0  0
  1 13  1  0
  2 13  1  0
  3 12  1  0
  3 14  1  0
  4 12  2  0
  5 18  1  0
  5 21  1  0
  6  7  1  0
  6  8  1  0
  6  9  1  0
  6 10  1  0
  7  8  1  0
  7 11  1  0
  8 12  1  0
 11 13  2  0
 14 15  1  0
 15 16  2  0
 15 17  1  0
 16 18  1  0
 17 19  2  0
 18 20  2  0
 19 20  1  0
 21 22  2  0
 21 23  1  0
 22 24  1  0
 23 25  2  0
 24 26  2  0
 25 26  1  0
M  END
$$$$
