HUP
     RDKit          2D

 18 20  0  0  0  0  0  0  0  0999 V2000
    1.0512   -2.0114    0.0000 C   0  0  0  0  0  0  0  0  0  0  0  0
    1.1679   -2.8281    0.0000 O   0  0  0  0  0  0  0  0  0  0  0  0
    0.2855   -1.7041    0.0000 N   0  0  0  0  0  0  0  0  0  0  0  0
    1.7001   -1.5019    0.0000 C   0  0  0  0  0  0  0  0  0  0  0  0
    1.5834   -0.6852    0.0000 C   0  0  0  0  0  0  0  0  0  0  0  0
    0.8177   -0.3780    0.0000 C   0  0  0  0  0  0  0  0  0  0  0  0
    0.1688   -0.8874    0.0000 C   0  0  0  0  0  0  0  0  0  0  0  0
    0.3040   -0.2321    0.0000 C   0  0  0  0  0  0  0  0  0  0  0  0
   -0.1541    0.6116    0.0000 C   0  0  0  0  0  0  0  0  0  0  0  0
   -1.0390    0.1721    0.0000 C   0  0  0  0  0  0  0  0  0  0  0  0
    0.4945    2.5464    0.0000 C   0  0  0  0  0  0  0  0  0  0  0  0
    0.9017    1.8289    0.0000 C   0  0  0  0  0  0  0  0  0  0  0  0
    0.4838    1.1175    0.0000 C   0  0  0  0  0  0  0  0  0  0  0  0
    0.3708    0.4250    0.0000 C   0  0  0  0  0  0  0  0  0  0  0  0
    0.7572    1.2022    0.0000 N   0  0  0  0  0  0  0  0  0  0  0  0
   -0.4916    0.0145    0.0000 C   0  0  0  0  0  0  0  0  0  0  0  0
   -0.7982   -0.6283    0.0000 C   0  0  0  0  0  0  0  0  0  0  0  0
   -1.1044   -1.3081    0.0000 C   0  0  0  0  0  0  0  0  0  0  0  0
  1  2  2  0
  1  3  1  0
  1  4  1  0
  3  7  1  0
  4  5  2  0
  5  6  1  0
  6  7  2  0
  6 14  1  0
  7  8  1  0
  9  8  1  6
  9 10  1  0
  9 13  1  0
 10 17  2  0
 11 12  1  0
 12 13  2  0
 13 14  1  0
 14 15  1  6
 14 16  1  0
 16 17  1  0
 17 18  1  0
M  END
$$$$
