
     RDKit          2D

 34 35  0  0  0  0  0  0  0  0999 V2000
    5.2224    2.8876    0.0000 I   0  0  0  0  0  0  0  0  0  0  0  0
    2.3645   -2.8876    0.0000 I   0  0  0  0  0  0  0  0  0  0  0  0
    8.0804    2.8876    0.0000 I   0  0  0  0  0  0  0  0  0  0  0  0
    5.2224   -2.8876    0.0000 I   0  0  0  0  0  0  0  0  0  0  0  0
    6.6515    5.3626    0.0000 I   0  0  0  0  0  0  0  0  0  0  0  0
    3.7935   -5.3626    0.0000 I   0  0  0  0  0  0  0  0  0  0  0  0
    5.2224    2.0625    0.0000 O   0  0  0  0  0  0  0  0  0  0  0  0
    5.2224   -2.0625    0.0000 O   0  0  0  0  0  0  0  0  0  0  0  0
    5.2224    5.3626    0.0000 O   0  0  0  0  0  0  0  0  0  0  0  0
    2.3645   -5.3626    0.0000 O   0  0  0  0  0  0  0  0  0  0  0  0
    4.5080    4.1251    0.0000 O   0  0  0  0  0  0  0  0  0  0  0  0
    1.6500   -4.1251    0.0000 O   0  0  0  0  0  0  0  0  0  0  0  0
    6.6515    2.0625    0.0000 N   0  0  0  0  0  0  0  0  0  0  0  0
    3.7935   -2.0625    0.0000 N   0  0  0  0  0  0  0  0  0  0  0  0
    5.2224    0.4125    0.0000 C   0  0  0  0  0  0  0  0  0  0  0  0
    5.2224   -0.4125    0.0000 C   0  0  0  0  0  0  0  0  0  0  0  0
    5.9370    0.8250    0.0000 C   0  0  0  0  0  0  0  0  0  0  0  0
    4.5080   -0.8250    0.0000 C   0  0  0  0  0  0  0  0  0  0  0  0
    5.9370    1.6500    0.0000 C   0  0  0  0  0  0  0  0  0  0  0  0
    4.5080   -1.6500    0.0000 C   0  0  0  0  0  0  0  0  0  0  0  0
    6.6515    2.8876    0.0000 C   0  0  0  0  0  0  0  0  0  0  0  0
    3.7935   -2.8876    0.0000 C   0  0  0  0  0  0  0  0  0  0  0  0
    5.9370    3.3001    0.0000 C   0  0  0  0  0  0  0  0  0  0  0  0
    3.0791   -3.3001    0.0000 C   0  0  0  0  0  0  0  0  0  0  0  0
    7.3659    3.3001    0.0000 C   0  0  0  0  0  0  0  0  0  0  0  0
    4.5080   -3.3001    0.0000 C   0  0  0  0  0  0  0  0  0  0  0  0
    5.9370    4.1251    0.0000 C   0  0  0  0  0  0  0  0  0  0  0  0
    3.0791   -4.1251    0.0000 C   0  0  0  0  0  0  0  0  0  0  0  0
    7.3659    4.1251    0.0000 C   0  0  0  0  0  0  0  0  0  0  0  0
    4.5080   -4.1251    0.0000 C   0  0  0  0  0  0  0  0  0  0  0  0
    6.6515    4.5376    0.0000 C   0  0  0  0  0  0  0  0  0  0  0  0
    3.7935   -4.5376    0.0000 C   0  0  0  0  0  0  0  0  0  0  0  0
    5.2224    4.5376    0.0000 C   0  0  0  0  0  0  0  0  0  0  0  0
    2.3645   -4.5376    0.0000 C   0  0  0  0  0  0  0  0  0  0  0  0
  1 23  1  0
  2 24  1  0
  3 25  1  0
  4 26  1  0
  5 31  1  0
  6 32  1  0
  7 19  2  0
  8 20  2  0
  9 33  1  0
 10 34  1  0
 11 33  2  0
 12 34  2  0
 13 19  1  0
 13 21  1  0
 14 20  1  0
 14 22  1  0
 15 16  1  0
 15 17  1  0
 16 18  1  0
 17 19  1  0
 18 20  1  0
 21 23  2  0
 21 25  1  0
 22 24  2  0
 22 26  1  0
 23 27  1  0
 24 28  1  0
 25 29  2  0
 26 30  2  0
 27 31  2  0
 27 33  1  0
 28 32  2  0
 28 34  1  0
 29 31  1  0
 30 32  1  0
M  END
$$$$
