
     RDKit          2D

 17 18  0  0  0  0  0  0  0  0999 V2000
    2.3645   -2.5229    0.0000 S   0  0  0  0  0  0  0  0  0  0  0  0
    1.6500    1.1897    0.0000 O   0  0  0  0  0  0  0  0  0  0  0  0
    4.3078    2.9354    0.0000 O   0  0  0  0  0  0  0  0  0  0  0  0
    3.1652    2.0101    0.0000 N   0  0  0  0  0  0  0  0  0  0  0  0
    4.3847    1.4672    0.0000 N   0  0  0  0  0  0  0  0  0  0  0  0
    3.0790    1.1897    0.0000 C   0  0  0  0  0  0  0  0  0  0  0  0
    3.8327    0.8541    0.0000 C   0  0  0  0  0  0  0  0  0  0  0  0
    2.3645    0.7772    0.0000 C   0  0  0  0  0  0  0  0  0  0  0  0
    2.3645   -0.0479    0.0000 C   0  0  0  0  0  0  0  0  0  0  0  0
    3.9722    2.1817    0.0000 C   0  0  0  0  0  0  0  0  0  0  0  0
    4.0042    0.0471    0.0000 C   0  0  0  0  0  0  0  0  0  0  0  0
    3.0790   -0.4604    0.0000 C   0  0  0  0  0  0  0  0  0  0  0  0
    1.6500   -0.4604    0.0000 C   0  0  0  0  0  0  0  0  0  0  0  0
    2.3645   -1.6979    0.0000 C   0  0  0  0  0  0  0  0  0  0  0  0
    3.0790   -1.2854    0.0000 C   0  0  0  0  0  0  0  0  0  0  0  0
    1.6500   -1.2854    0.0000 C   0  0  0  0  0  0  0  0  0  0  0  0
    1.6500   -2.9354    0.0000 C   0  0  0  0  0  0  0  0  0  0  0  0
  1 14  1  0
  1 17  1  0
  2  8  2  0
  3 10  2  0
  4  6  1  0
  4 10  1  0
  5  7  1  0
  5 10  1  0
  6  7  2  0
  6  8  1  0
  7 11  1  0
  8  9  1  0
  9 12  2  0
  9 13  1  0
 12 15  1  0
 13 16  2  0
 14 15  2  0
 14 16  1  0
M  END
$$$$
