
     RDKit          2D

 24 26  0  0  0  0  0  0  0  0999 V2000
    3.7709   -2.2345    0.0000 S   0  0  0  0  0  0  0  0  0  0  0  0
    3.7709    0.1900    0.0000 O   0  0  0  0  0  0  0  0  0  0  0  0
    6.5649    1.8504    0.0000 N   0  0  0  0  0  0  0  0  0  0  0  0
    5.1839    0.2180    0.0000 N   0  0  0  0  0  0  0  0  0  0  0  0
    5.8698    1.4382    0.0000 C   0  0  0  0  0  0  0  0  0  0  0  0
    5.8791    0.6301    0.0000 C   0  0  0  0  0  0  0  0  0  0  0  0
    5.1932   -0.5901    0.0000 C   0  0  0  0  0  0  0  0  0  0  0  0
    4.4709   -1.0222    0.0000 C   0  0  0  0  0  0  0  0  0  0  0  0
    7.2694    1.4543    0.0000 C   0  0  0  0  0  0  0  0  0  0  0  0
    6.5556    2.6585    0.0000 C   0  0  0  0  0  0  0  0  0  0  0  0
    4.4709   -1.8304    0.0000 C   0  0  0  0  0  0  0  0  0  0  0  0
    5.1932   -2.2625    0.0000 C   0  0  0  0  0  0  0  0  0  0  0  0
    3.7709   -0.6181    0.0000 C   0  0  0  0  0  0  0  0  0  0  0  0
    5.9255   -1.0055    0.0000 C   0  0  0  0  0  0  0  0  0  0  0  0
    3.0710   -1.0222    0.0000 C   0  0  0  0  0  0  0  0  0  0  0  0
    5.9255   -1.8473    0.0000 C   0  0  0  0  0  0  0  0  0  0  0  0
    3.0710   -1.8304    0.0000 C   0  0  0  0  0  0  0  0  0  0  0  0
    7.9647    1.8666    0.0000 C   0  0  0  0  0  0  0  0  0  0  0  0
    7.2508    3.0706    0.0000 C   0  0  0  0  0  0  0  0  0  0  0  0
    5.1839   -3.0706    0.0000 C   0  0  0  0  0  0  0  0  0  0  0  0
    2.3486   -0.5901    0.0000 C   0  0  0  0  0  0  0  0  0  0  0  0
    2.3486   -2.2625    0.0000 C   0  0  0  0  0  0  0  0  0  0  0  0
    1.6164   -1.0055    0.0000 C   0  0  0  0  0  0  0  0  0  0  0  0
    1.6164   -1.8473    0.0000 C   0  0  0  0  0  0  0  0  0  0  0  0
  1 11  1  0
  1 17  1  0
  2 13  2  0
  3  5  1  0
  3  9  1  0
  3 10  1  0
  4  6  1  0
  4  7  1  0
  5  6  1  0
  7  8  1  0
  7 14  2  0
  8 11  2  0
  8 13  1  0
  9 18  1  0
 10 19  1  0
 11 12  1  0
 12 16  2  0
 12 20  1  0
 13 15  1  0
 14 16  1  0
 15 17  2  0
 15 21  1  0
 17 22  1  0
 21 23  2  0
 22 24  2  0
 23 24  1  0
M  END
$$$$
