
     RDKit          2D

 21 22  0  0  0  0  0  0  0  0999 V2000
    5.0479    6.3447    0.0000 S   0  0  0  0  0  0  0  0  0  0  0  0
    5.4532    3.2166    0.0000 O   0  0  0  0  0  0  0  0  0  0  0  0
    5.5328    7.0121    0.0000 O   0  0  0  0  0  0  0  0  0  0  0  0
    5.7154    5.8597    0.0000 O   0  0  0  0  0  0  0  0  0  0  0  0
    4.3804    6.8296    0.0000 O   0  0  0  0  0  0  0  0  0  0  0  0
    3.3336    3.4715    0.0000 N   0  0  0  0  0  0  0  0  0  0  0  0
    4.0011    2.9865    0.0000 N   0  0  0  0  0  0  0  0  0  0  0  0
    4.8985    4.9236    0.0000 N   0  0  0  0  0  0  0  0  0  0  0  0
    4.4136    4.2561    0.0000 C   0  0  0  0  0  0  0  0  0  0  0  0
    3.5886    4.2561    0.0000 C   0  0  0  0  0  0  0  0  0  0  0  0
    4.6685    3.4715    0.0000 C   0  0  0  0  0  0  0  0  0  0  0  0
    4.5630    5.6772    0.0000 C   0  0  0  0  0  0  0  0  0  0  0  0
    4.0011    2.1615    0.0000 C   0  0  0  0  0  0  0  0  0  0  0  0
    3.1036    4.9236    0.0000 C   0  0  0  0  0  0  0  0  0  0  0  0
    2.5490    3.2166    0.0000 C   0  0  0  0  0  0  0  0  0  0  0  0
    5.7190    4.8373    0.0000 C   0  0  0  0  0  0  0  0  0  0  0  0
    4.7156    1.7490    0.0000 C   0  0  0  0  0  0  0  0  0  0  0  0
    3.2866    1.7490    0.0000 C   0  0  0  0  0  0  0  0  0  0  0  0
    4.7156    0.9240    0.0000 C   0  0  0  0  0  0  0  0  0  0  0  0
    3.2866    0.9240    0.0000 C   0  0  0  0  0  0  0  0  0  0  0  0
    4.0011    0.5115    0.0000 C   0  0  0  0  0  0  0  0  0  0  0  0
  1  3  1  0
  1  4  2  0
  1  5  2  0
  1 12  1  0
  2 11  2  0
  6  7  1  0
  6 10  1  0
  6 15  1  0
  7 11  1  0
  7 13  1  0
  8  9  1  0
  8 12  1  0
  8 16  1  0
  9 10  2  0
  9 11  1  0
 10 14  1  0
 13 17  2  0
 13 18  1  0
 17 19  1  0
 18 20  2  0
 19 21  2  0
 20 21  1  0
M  CHG  1   3  -1
M  END
$$$$
