
     RDKit          2D

 11 13  0  0  0  0  0  0  0  0999 V2000
    0.7145    3.0151    0.0000 S   0  0  0  0  0  0  0  0  0  0  0  0
    1.5395    3.0151    0.0000 P   0  0  0  0  0  0  0  0  0  0  0  0
    1.5395    2.1901    0.0000 N   0  0  0  0  0  0  0  0  0  0  0  0
    1.9520    1.4757    0.0000 C   0  0  0  0  0  0  0  0  0  0  0  0
    1.1270    1.4757    0.0000 C   0  0  0  0  0  0  0  0  0  0  0  0
    1.5395    3.8401    0.0000 N   0  0  0  0  0  0  0  0  0  0  0  0
    1.1270    4.5546    0.0000 C   0  0  0  0  0  0  0  0  0  0  0  0
    1.9520    4.5546    0.0000 C   0  0  0  0  0  0  0  0  0  0  0  0
    2.3645    3.0151    0.0000 N   0  0  0  0  0  0  0  0  0  0  0  0
    3.0789    3.4276    0.0000 C   0  0  0  0  0  0  0  0  0  0  0  0
    3.0789    2.6026    0.0000 C   0  0  0  0  0  0  0  0  0  0  0  0
  1  2  2  0
  2  3  1  0
  3  4  1  0
  4  5  1  0
  3  5  1  0
  2  6  1  0
  6  7  1  0
  7  8  1  0
  6  8  1  0
  2  9  1  0
  9 10  1  0
 10 11  1  0
  9 11  1  0
M  END
$$$$
