
     RDKit          2D

 28 31  0  0  0  0  0  0  0  0999 V2000
    7.6491    3.9184    0.0000 F   0  0  0  0  0  0  0  0  0  0  0  0
    8.6265    3.2812    0.0000 F   0  0  0  0  0  0  0  0  0  0  0  0
    7.9894    2.3038    0.0000 F   0  0  0  0  0  0  0  0  0  0  0  0
    5.1661   -2.7683    0.0000 O   0  0  0  0  0  0  0  0  0  0  0  0
    5.1795   -0.3659    0.0000 N   0  0  0  0  0  0  0  0  0  0  0  0
    5.6921    1.2025    0.0000 N   0  0  0  0  0  0  0  0  0  0  0  0
    3.8596   -2.1043    0.0000 N   0  0  0  0  0  0  0  0  0  0  0  0
    3.8596   -3.4322    0.0000 N   0  0  0  0  0  0  0  0  0  0  0  0
    4.6285    0.2482    0.0000 C   0  0  0  0  0  0  0  0  0  0  0  0
    5.9868   -0.1958    0.0000 C   0  0  0  0  0  0  0  0  0  0  0  0
    4.8848    1.0323    0.0000 C   0  0  0  0  0  0  0  0  0  0  0  0
    6.2431    0.5885    0.0000 C   0  0  0  0  0  0  0  0  0  0  0  0
    4.9232   -1.1501    0.0000 C   0  0  0  0  0  0  0  0  0  0  0  0
    4.1159   -1.3202    0.0000 C   0  0  0  0  0  0  0  0  0  0  0  0
    5.9484    1.9867    0.0000 C   0  0  0  0  0  0  0  0  0  0  0  0
    3.0790   -2.3558    0.0000 C   0  0  0  0  0  0  0  0  0  0  0  0
    4.3411   -2.7683    0.0000 C   0  0  0  0  0  0  0  0  0  0  0  0
    6.7557    2.1568    0.0000 C   0  0  0  0  0  0  0  0  0  0  0  0
    3.0790   -3.1808    0.0000 C   0  0  0  0  0  0  0  0  0  0  0  0
    5.3974    2.6008    0.0000 C   0  0  0  0  0  0  0  0  0  0  0  0
    7.0120    2.9410    0.0000 C   0  0  0  0  0  0  0  0  0  0  0  0
    2.3645   -1.9433    0.0000 C   0  0  0  0  0  0  0  0  0  0  0  0
    5.6537    3.3849    0.0000 C   0  0  0  0  0  0  0  0  0  0  0  0
    2.3645   -3.5933    0.0000 C   0  0  0  0  0  0  0  0  0  0  0  0
    6.4610    3.5550    0.0000 C   0  0  0  0  0  0  0  0  0  0  0  0
    1.6500   -2.3558    0.0000 C   0  0  0  0  0  0  0  0  0  0  0  0
    1.6500   -3.1808    0.0000 C   0  0  0  0  0  0  0  0  0  0  0  0
    7.8193    3.1111    0.0000 C   0  0  0  0  0  0  0  0  0  0  0  0
  1 28  1  0
  2 28  1  0
  3 28  1  0
  4 17  2  0
  5  9  1  0
  5 10  1  0
  5 13  1  0
  6 11  1  0
  6 12  1  0
  6 15  1  0
  7 14  1  0
  7 16  1  0
  7 17  1  0
  8 17  1  0
  8 19  1  0
  9 11  1  0
 10 12  1  0
 13 14  1  0
 15 18  2  0
 15 20  1  0
 16 19  2  0
 16 22  1  0
 18 21  1  0
 19 24  1  0
 20 23  2  0
 21 25  2  0
 21 28  1  0
 22 26  2  0
 23 25  1  0
 24 27  2  0
 26 27  1  0
M  END
$$$$
