4842
     RDKit          2D

 35 39  0  0  1  0  0  0  0  0999 V2000
    1.6500   -0.7962    0.0000 F   0  0  0  0  0  0  0  0  0  0  0  0
    6.6001   -3.6542    0.0000 F   0  0  0  0  0  0  0  0  0  0  0  0
    9.3052   -0.8193    0.0000 O   0  0  0  0  0  0  0  0  0  0  0  0
    9.5601    1.3002    0.0000 N   0  0  0  0  0  0  0  0  0  0  0  0
    7.4252    0.6328    0.0000 N   0  0  0  0  0  0  0  0  0  0  0  0
   10.3447    0.2203    0.0000 N   0  0  0  0  0  0  0  0  0  0  0  0
    9.0752    0.6328    0.0000 C   0  0  0  0  0  0  0  0  0  0  0  0
    8.6627   -0.0817    0.0000 C   0  0  0  0  0  0  0  0  0  0  0  0
    8.6627    1.3473    0.0000 C   0  0  0  0  0  0  0  0  0  0  0  0
    7.8377   -0.0817    0.0000 C   0  0  0  0  0  0  0  0  0  0  0  0
    7.8377    1.3473    0.0000 C   0  0  0  0  0  0  0  0  0  0  0  0
    9.5601   -0.0347    0.0000 C   0  0  0  0  0  0  0  0  0  0  0  0
   10.3447    1.0453    0.0000 C   0  0  0  0  0  0  0  0  0  0  0  0
    6.6001    0.6328    0.0000 C   0  0  0  0  0  0  0  0  0  0  0  0
    9.3052    2.0849    0.0000 C   0  0  0  0  0  0  0  0  0  0  0  0
    6.1876   -0.0817    0.0000 C   0  0  0  0  0  0  0  0  0  0  0  0
    5.3626   -0.0817    0.0000 C   0  0  0  0  0  0  0  0  0  0  0  0
    4.9501   -0.7962    0.0000 C   0  0  0  0  0  0  0  0  0  0  0  0
    8.4982    2.2564    0.0000 C   0  0  0  0  0  0  0  0  0  0  0  0
    9.8572    2.6980    0.0000 C   0  0  0  0  0  0  0  0  0  0  0  0
    4.1251   -0.7962    0.0000 C   0  0  0  0  0  0  0  0  0  0  0  0
    5.3626   -1.5107    0.0000 C   0  0  0  0  0  0  0  0  0  0  0  0
    8.2433    3.0410    0.0000 C   0  0  0  0  0  0  0  0  0  0  0  0
    9.6023    3.4826    0.0000 C   0  0  0  0  0  0  0  0  0  0  0  0
    8.7953    3.6542    0.0000 C   0  0  0  0  0  0  0  0  0  0  0  0
    3.7126   -1.5107    0.0000 C   0  0  0  0  0  0  0  0  0  0  0  0
    6.1876   -1.5107    0.0000 C   0  0  0  0  0  0  0  0  0  0  0  0
    3.7126   -0.0817    0.0000 C   0  0  0  0  0  0  0  0  0  0  0  0
    4.9501   -2.2252    0.0000 C   0  0  0  0  0  0  0  0  0  0  0  0
    2.8876   -1.5107    0.0000 C   0  0  0  0  0  0  0  0  0  0  0  0
    6.6001   -2.2252    0.0000 C   0  0  0  0  0  0  0  0  0  0  0  0
    2.8876   -0.0817    0.0000 C   0  0  0  0  0  0  0  0  0  0  0  0
    5.3626   -2.9396    0.0000 C   0  0  0  0  0  0  0  0  0  0  0  0
    2.4751   -0.7962    0.0000 C   0  0  0  0  0  0  0  0  0  0  0  0
    6.1876   -2.9396    0.0000 C   0  0  0  0  0  0  0  0  0  0  0  0
  1 34  1  0
  2 35  1  0
  3 12  2  0
  4  7  1  0
  4 13  1  0
  4 15  1  0
  5 10  1  0
  5 11  1  0
  5 14  1  0
  6 12  1  0
  6 13  1  0
  7  8  1  0
  7  9  1  0
  7 12  1  0
  8 10  1  0
  9 11  1  0
 14 16  1  0
 15 19  2  0
 15 20  1  0
 16 17  1  0
 17 18  1  0
 18 21  1  0
 18 22  1  0
 19 23  1  0
 20 24  2  0
 21 26  2  0
 21 28  1  0
 22 27  2  0
 22 29  1  0
 23 25  2  0
 24 25  1  0
 26 30  1  0
 27 31  1  0
 28 32  2  0
 29 33  2  0
 30 34  2  0
 31 35  2  0
 32 34  1  0
 33 35  1  0
M  END
$$$$
