4575
     RDKit          2D

 27 31  0  0  1  0  0  0  0  0999 V2000
    8.6440    1.5551    0.0000 O   0  0  0  0  0  0  0  0  0  0  0  0
    3.6676   -1.9997    0.0000 O   0  0  0  0  0  0  0  0  0  0  0  0
    8.1169    0.5186    0.0000 C   0  0  0  0  0  0  0  0  0  0  0  0
    8.1169   -0.3064    0.0000 C   0  0  0  0  0  0  0  0  0  0  0  0
    7.4024   -0.7189    0.0000 C   0  0  0  0  0  0  0  0  0  0  0  0
    8.8976    0.7700    0.0000 C   0  0  0  0  0  0  0  0  0  0  0  0
    6.6880   -0.3064    0.0000 C   0  0  0  0  0  0  0  0  0  0  0  0
    7.4024    0.9311    0.0000 C   0  0  0  0  0  0  0  0  0  0  0  0
    8.8976   -0.5579    0.0000 C   0  0  0  0  0  0  0  0  0  0  0  0
    6.6880    0.5186    0.0000 C   0  0  0  0  0  0  0  0  0  0  0  0
    9.3791    0.1061    0.0000 C   0  0  0  0  0  0  0  0  0  0  0  0
    7.4157   -1.5783    0.0000 C   0  0  0  0  0  0  0  0  0  0  0  0
    8.1169    1.3436    0.0000 C   0  0  0  0  0  0  0  0  0  0  0  0
    5.9372   -0.7246    0.0000 C   0  0  0  0  0  0  0  0  0  0  0  0
    6.6748   -2.0136    0.0000 C   0  0  0  0  0  0  0  0  0  0  0  0
    5.9306   -1.5839    0.0000 C   0  0  0  0  0  0  0  0  0  0  0  0
    9.5659    1.2538    0.0000 C   0  0  0  0  0  0  0  0  0  0  0  0
    5.1726   -0.2592    0.0000 C   0  0  0  0  0  0  0  0  0  0  0  0
    5.1588   -2.0375    0.0000 C   0  0  0  0  0  0  0  0  0  0  0  0
    4.3906   -0.6948    0.0000 C   0  0  0  0  0  0  0  0  0  0  0  0
    4.3836   -1.5899    0.0000 C   0  0  0  0  0  0  0  0  0  0  0  0
   10.2341    1.7376    0.0000 C   0  0  0  0  0  0  0  0  0  0  0  0
    2.9547   -1.5844    0.0000 C   0  0  0  0  0  0  0  0  0  0  0  0
    2.8716   -0.7636    0.0000 C   0  0  0  0  0  0  0  0  0  0  0  0
    2.1997   -1.9171    0.0000 C   0  0  0  0  0  0  0  0  0  0  0  0
    2.0653   -0.5889    0.0000 C   0  0  0  0  0  0  0  0  0  0  0  0
    1.6500   -1.3018    0.0000 C   0  0  0  0  0  0  0  0  0  0  0  0
  6  1  1  1
  2 21  1  0
  2 23  1  0
  3  4  1  0
  3  6  1  0
  3  8  1  0
  3 13  1  1
  4  5  1  0
  4  9  1  1
  5  7  1  0
  5 12  1  6
  6 11  1  0
  6 17  1  0
  7 10  1  1
  7 14  1  0
  8 10  1  0
  9 11  1  0
 12 15  1  0
 14 16  2  0
 14 18  1  0
 15 16  1  0
 16 19  1  0
 17 22  3  0
 18 20  2  0
 19 21  2  0
 20 21  1  0
 23 24  1  0
 23 25  1  0
 24 26  1  0
 25 27  1  0
 26 27  1  0
M  END
$$$$
