
     RDKit          2D

 14 15  0  0  0  0  0  0  0  0999 V2000
    1.6500    0.4125    0.0000 O   0  0  0  0  0  0  0  0  0  0  0  0
    3.0790    0.4125    0.0000 N   0  0  0  0  0  0  0  0  0  0  0  0
    3.0790   -0.4125    0.0000 C   0  0  0  0  0  0  0  0  0  0  0  0
    3.7934    0.8250    0.0000 C   0  0  0  0  0  0  0  0  0  0  0  0
    3.7934    1.6500    0.0000 C   0  0  0  0  0  0  0  0  0  0  0  0
    2.3644    0.8250    0.0000 C   0  0  0  0  0  0  0  0  0  0  0  0
    3.0790    2.0625    0.0000 C   0  0  0  0  0  0  0  0  0  0  0  0
    2.3644    1.6500    0.0000 C   0  0  0  0  0  0  0  0  0  0  0  0
    3.7934   -0.8250    0.0000 C   0  0  0  0  0  0  0  0  0  0  0  0
    2.3644   -0.8250    0.0000 C   0  0  0  0  0  0  0  0  0  0  0  0
    4.5079    2.0625    0.0000 C   0  0  0  0  0  0  0  0  0  0  0  0
    3.7934   -1.6500    0.0000 C   0  0  0  0  0  0  0  0  0  0  0  0
    2.3644   -1.6500    0.0000 C   0  0  0  0  0  0  0  0  0  0  0  0
    3.0790   -2.0625    0.0000 C   0  0  0  0  0  0  0  0  0  0  0  0
  1  6  2  0
  2  3  1  0
  2  4  1  0
  2  6  1  0
  3  9  2  0
  3 10  1  0
  4  5  2  0
  5  7  1  0
  5 11  1  0
  6  8  1  0
  7  8  2  0
  9 12  1  0
 10 13  2  0
 12 14  2  0
 13 14  1  0
M  END
$$$$
