
     RDKit          2D

 19 21  0  0  1  0  0  0  0  0999 V2000
    3.6321    0.6079    0.0000 O   0  0  0  0  0  0  0  0  0  0  0  0
    5.5675   -0.2929    0.0000 O   0  0  0  0  0  0  0  0  0  0  0  0
    5.5706    1.5020    0.0000 O   0  0  0  0  0  0  0  0  0  0  0  0
    4.4177    2.6717    0.0000 O   0  0  0  0  0  0  0  0  0  0  0  0
    2.3645   -3.1584    0.0000 O   0  0  0  0  0  0  0  0  0  0  0  0
    3.8596   -0.8446    0.0000 N   0  0  0  0  0  0  0  0  0  0  0  0
    2.3645   -0.6834    0.0000 N   0  0  0  0  0  0  0  0  0  0  0  0
    3.8596   -2.1724    0.0000 N   0  0  0  0  0  0  0  0  0  0  0  0
    1.6500   -1.9209    0.0000 N   0  0  0  0  0  0  0  0  0  0  0  0
    4.9009    0.1932    0.0000 C   0  0  0  0  0  0  0  0  0  0  0  0
    4.1158   -0.0604    0.0000 C   0  0  0  0  0  0  0  0  0  0  0  0
    4.9024    1.0182    0.0000 C   0  0  0  0  0  0  0  0  0  0  0  0
    4.1182    1.2745    0.0000 C   0  0  0  0  0  0  0  0  0  0  0  0
    3.8646    2.0596    0.0000 C   0  0  0  0  0  0  0  0  0  0  0  0
    3.0790   -1.0959    0.0000 C   0  0  0  0  0  0  0  0  0  0  0  0
    4.3411   -1.5084    0.0000 C   0  0  0  0  0  0  0  0  0  0  0  0
    3.0790   -1.9209    0.0000 C   0  0  0  0  0  0  0  0  0  0  0  0
    2.3645   -2.3334    0.0000 C   0  0  0  0  0  0  0  0  0  0  0  0
    1.6500   -1.0959    0.0000 C   0  0  0  0  0  0  0  0  0  0  0  0
  1 11  1  0
  1 13  1  0
 10  2  1  1
 12  3  1  1
  4 14  1  0
  5 18  2  0
 11  6  1  6
  6 15  1  0
  6 16  1  0
  7 15  1  0
  7 19  1  0
  8 16  2  0
  8 17  1  0
  9 18  1  0
  9 19  2  0
 10 11  1  0
 10 12  1  0
 12 13  1  0
 13 14  1  6
 15 17  2  0
 17 18  1  0
M  END
$$$$
