
     RDKit          2D

 23 24  0  0  1  0  0  0  0  0999 V2000
   -3.1038   -2.0012    0.0000 O   0  0  0  0  0  0  0  0  0  0  0  0
   -2.3893   -1.5887    0.0000 C   0  0  0  0  0  0  0  0  0  0  0  0
   -1.6748   -2.0012    0.0000 C   0  0  0  0  0  0  0  0  0  0  0  0
   -0.9603   -1.5887    0.0000 O   0  0  0  0  0  0  0  0  0  0  0  0
   -0.2459   -2.0012    0.0000 C   0  0  0  0  0  0  0  0  0  0  0  0
   -0.2459   -2.8262    0.0000 C   0  0  0  0  0  0  0  0  0  0  0  0
    0.4686   -3.2387    0.0000 O   0  0  0  0  0  0  0  0  0  0  0  0
   -0.9603   -3.2387    0.0000 C   0  0  0  0  0  0  0  0  0  0  0  0
   -0.9603   -4.0637    0.0000 O   0  0  0  0  0  0  0  0  0  0  0  0
   -1.6748   -2.8262    0.0000 C   0  0  0  0  0  0  0  0  0  0  0  0
   -2.3893   -3.2387    0.0000 O   0  0  0  0  0  0  0  0  0  0  0  0
    0.4686   -0.7637    0.0000 C   0  0  0  0  0  0  0  0  0  0  0  0
   -0.2459   -0.3512    0.0000 C   0  0  0  0  0  0  0  0  0  0  0  0
   -0.9603   -0.7637    0.0000 C   0  0  0  0  0  0  0  0  0  0  0  0
   -1.6748   -0.3512    0.0000 O   0  0  0  0  0  0  0  0  0  0  0  0
   -0.2459    0.4738    0.0000 O   0  0  0  0  0  0  0  0  0  0  0  0
    0.4686    0.8863    0.0000 C   0  0  0  0  0  0  0  0  0  0  0  0
    0.4686    1.7113    0.0000 O   0  0  0  0  0  0  0  0  0  0  0  0
    1.1831    0.4738    0.0000 C   0  0  0  0  0  0  0  0  0  0  0  0
    1.8975    0.8863    0.0000 O   0  0  0  0  0  0  0  0  0  0  0  0
    1.1831   -0.3512    0.0000 C   0  0  0  0  0  0  0  0  0  0  0  0
    1.8975   -0.7637    0.0000 O   0  0  0  0  0  0  0  0  0  0  0  0
    0.4686   -1.5887    0.0000 O   0  0  0  0  0  0  0  0  0  0  0  0
  1  2  1  0
  3  2  1  1
  3  4  1  0
  4  5  1  0
  5 23  1  1
  5  6  1  0
  6  7  1  6
  6  8  1  0
  8  9  1  1
  8 10  1  0
  3 10  1  0
 10 11  1  1
 12 13  1  0
 13 14  1  1
 14 15  1  0
 13 16  1  0
 16 17  1  0
 17 18  1  0
 17 19  1  0
 19 20  1  6
 19 21  1  0
 12 21  1  0
 21 22  1  1
 12 23  1  6
M  END
$$$$
