
     RDKit          2D

 25 29  0  0  0  0  0  0  0  0999 V2000
   -2.0514   -4.0458    0.0000 C   0  0  0  0  0  0  0  0  0  0  0  0
   -1.6498   -3.3251    0.0000 O   0  0  0  0  0  0  0  0  0  0  0  0
   -0.8249   -3.3125    0.0000 C   0  0  0  0  0  0  0  0  0  0  0  0
   -0.4233   -2.5919    0.0000 C   0  0  0  0  0  0  0  0  0  0  0  0
    0.4016   -2.5793    0.0000 C   0  0  0  0  0  0  0  0  0  0  0  0
    0.8249   -3.2875    0.0000 C   0  0  0  0  0  0  0  0  0  0  0  0
    1.6498   -3.2749    0.0000 C   0  0  0  0  0  0  0  0  0  0  0  0
    2.0731   -3.9830    0.0000 C   0  0  0  0  0  0  0  0  0  0  0  0
    2.8980   -3.9705    0.0000 C   0  0  0  0  0  0  0  0  0  0  0  0
    3.2996   -3.2498    0.0000 C   0  0  0  0  0  0  0  0  0  0  0  0
    4.1245   -3.2373    0.0000 C   0  0  0  0  0  0  0  0  0  0  0  0
    4.5478   -3.9454    0.0000 C   0  0  0  0  0  0  0  0  0  0  0  0
    5.3521   -3.7616    0.0000 O   0  0  0  0  0  0  0  0  0  0  0  0
    5.4259   -2.9399    0.0000 C   0  0  0  0  0  0  0  0  0  0  0  0
    4.6672   -2.6158    0.0000 O   0  0  0  0  0  0  0  0  0  0  0  0
    4.1463   -4.6660    0.0000 C   0  0  0  0  0  0  0  0  0  0  0  0
    3.3213   -4.6786    0.0000 C   0  0  0  0  0  0  0  0  0  0  0  0
    2.9198   -5.3993    0.0000 C   0  0  0  0  0  0  0  0  0  0  0  0
    2.0949   -5.4118    0.0000 C   0  0  0  0  0  0  0  0  0  0  0  0
    1.6715   -4.7037    0.0000 N   0  0  0  0  0  0  0  0  0  0  0  0
    0.8466   -4.7162    0.0000 C   0  0  0  0  0  0  0  0  0  0  0  0
    0.4233   -4.0081    0.0000 C   0  0  0  0  0  0  0  0  0  0  0  0
   -0.4016   -4.0207    0.0000 C   0  0  0  0  0  0  0  0  0  0  0  0
   -0.8032   -4.7413    0.0000 O   0  0  0  0  0  0  0  0  0  0  0  0
   -1.6281   -4.7539    0.0000 C   0  0  0  0  0  0  0  0  0  0  0  0
  1  2  1  0
  2  3  1  0
  3  4  2  0
  4  5  1  0
  5  6  2  0
  6  7  1  0
  7  8  2  0
  8  9  1  0
  9 10  2  0
 10 11  1  0
 11 12  2  0
 12 13  1  0
 13 14  1  0
 14 15  1  0
 11 15  1  0
 12 16  1  0
 16 17  2  0
  9 17  1  0
 17 18  1  0
 18 19  1  0
 19 20  1  0
  8 20  1  0
 20 21  2  0
 21 22  1  0
  6 22  1  0
 22 23  2  0
  3 23  1  0
 23 24  1  0
 24 25  1  0
M  CHG  1  20   1
M  END
$$$$
