
     RDKit          2D

 80 86  0  0  0  0  0  0  0  0999 V2000
   -2.6143    1.4492    0.0000 C   0  0  0  0  0  0  0  0  0  0  0  0
   -2.3172    0.0515    0.0000 C   0  0  0  0  0  0  0  0  0  0  0  0
    4.0100   -5.9078    0.0000 C   0  0  0  0  0  0  0  0  0  0  0  0
    4.2649   -5.1232    0.0000 C   0  0  0  0  0  0  0  0  0  0  0  0
    3.2030   -6.0793    0.0000 C   0  0  0  0  0  0  0  0  0  0  0  0
   -3.6709   -5.7444    0.0000 C   0  0  0  0  0  0  0  0  0  0  0  0
    4.4410    2.7333    0.0000 C   0  0  0  0  0  0  0  0  0  0  0  0
   -2.9564   -6.1569    0.0000 C   0  0  0  0  0  0  0  0  0  0  0  0
    4.4410    3.5583    0.0000 C   0  0  0  0  0  0  0  0  0  0  0  0
   -1.0425    3.9746    0.0000 C   0  0  0  0  0  0  0  0  0  0  0  0
   -0.7876    4.7592    0.0000 C   0  0  0  0  0  0  0  0  0  0  0  0
    3.7129   -4.5101    0.0000 C   0  0  0  0  0  0  0  0  0  0  0  0
    2.6510   -5.4662    0.0000 C   0  0  0  0  0  0  0  0  0  0  0  0
   -3.6709   -4.9194    0.0000 C   0  0  0  0  0  0  0  0  0  0  0  0
    3.7265    2.3208    0.0000 C   0  0  0  0  0  0  0  0  0  0  0  0
   -2.2420   -5.7444    0.0000 C   0  0  0  0  0  0  0  0  0  0  0  0
    3.7265    3.9708    0.0000 C   0  0  0  0  0  0  0  0  0  0  0  0
   -0.4905    3.3615    0.0000 C   0  0  0  0  0  0  0  0  0  0  0  0
    2.3118   -1.8862    0.0000 C   0  0  0  0  0  0  0  0  0  0  0  0
    3.3737   -0.9300    0.0000 C   0  0  0  0  0  0  0  0  0  0  0  0
    2.8638   -2.4993    0.0000 C   0  0  0  0  0  0  0  0  0  0  0  0
    3.9257   -1.5431    0.0000 C   0  0  0  0  0  0  0  0  0  0  0  0
   -1.3396    5.3723    0.0000 C   0  0  0  0  0  0  0  0  0  0  0  0
    2.3539   -4.0685    0.0000 C   0  0  0  0  0  0  0  0  0  0  0  0
    2.0147   -0.4885    0.0000 C   0  0  0  0  0  0  0  0  0  0  0  0
   -3.3369   -3.0869    0.0000 C   0  0  0  0  0  0  0  0  0  0  0  0
    1.9725    1.6938    0.0000 C   0  0  0  0  0  0  0  0  0  0  0  0
   -1.9644   -3.6137    0.0000 C   0  0  0  0  0  0  0  0  0  0  0  0
    1.7425    3.1458    0.0000 C   0  0  0  0  0  0  0  0  0  0  0  0
    0.4429   -3.0139    0.0000 C   0  0  0  0  0  0  0  0  0  0  0  0
   -0.6611   -1.7877    0.0000 C   0  0  0  0  0  0  0  0  0  0  0  0
   -2.0623    0.8361    0.0000 C   0  0  0  0  0  0  0  0  0  0  0  0
    2.9059   -4.6816    0.0000 C   0  0  0  0  0  0  0  0  0  0  0  0
    2.5667   -1.1016    0.0000 C   0  0  0  0  0  0  0  0  0  0  0  0
   -2.7849   -3.7000    0.0000 C   0  0  0  0  0  0  0  0  0  0  0  0
    2.2274    2.4784    0.0000 C   0  0  0  0  0  0  0  0  0  0  0  0
    3.6708   -2.3278    0.0000 C   0  0  0  0  0  0  0  0  0  0  0  0
   -2.9564   -4.5069    0.0000 C   0  0  0  0  0  0  0  0  0  0  0  0
    3.0121    2.7333    0.0000 C   0  0  0  0  0  0  0  0  0  0  0  0
    1.5469   -4.2401    0.0000 C   0  0  0  0  0  0  0  0  0  0  0  0
   -2.2420   -4.9194    0.0000 C   0  0  0  0  0  0  0  0  0  0  0  0
    3.0121    3.5583    0.0000 C   0  0  0  0  0  0  0  0  0  0  0  0
   -0.7454    2.5769    0.0000 C   0  0  0  0  0  0  0  0  0  0  0  0
   -3.0820   -2.3023    0.0000 C   0  0  0  0  0  0  0  0  0  0  0  0
    1.2077   -0.6600    0.0000 C   0  0  0  0  0  0  0  0  0  0  0  0
    1.1655    1.5222    0.0000 C   0  0  0  0  0  0  0  0  0  0  0  0
    0.6978   -2.2292    0.0000 C   0  0  0  0  0  0  0  0  0  0  0  0
   -1.2131   -1.1746    0.0000 C   0  0  0  0  0  0  0  0  0  0  0  0
   -1.2553    1.0077    0.0000 C   0  0  0  0  0  0  0  0  0  0  0  0
   -3.6340   -1.6892    0.0000 C   0  0  0  0  0  0  0  0  0  0  0  0
    0.9949   -3.6270    0.0000 C   0  0  0  0  0  0  0  0  0  0  0  0
   -1.5524    2.4054    0.0000 C   0  0  0  0  0  0  0  0  0  0  0  0
    1.4626    0.1245    0.0000 C   0  0  0  0  0  0  0  0  0  0  0  0
    0.6135    2.1353    0.0000 C   0  0  0  0  0  0  0  0  0  0  0  0
   -2.0201   -1.3461    0.0000 C   0  0  0  0  0  0  0  0  0  0  0  0
    1.5048   -2.0577    0.0000 C   0  0  0  0  0  0  0  0  0  0  0  0
   -1.5102    0.2230    0.0000 C   0  0  0  0  0  0  0  0  0  0  0  0
   -1.0846    6.1569    0.0000 N   0  0  0  0  0  0  0  0  0  0  0  0
    1.2920   -5.0247    0.0000 N   0  0  0  0  0  0  0  0  0  0  0  0
   -4.4410   -1.8607    0.0000 N   0  0  0  0  0  0  0  0  0  0  0  0
   -1.6289   -4.3674    0.0000 N   0  0  0  0  0  0  0  0  0  0  0  0
    2.2274    3.8133    0.0000 N   0  0  0  0  0  0  0  0  0  0  0  0
   -0.1934    1.9638    0.0000 N   0  0  0  0  0  0  0  0  0  0  0  0
   -2.2750   -2.1307    0.0000 N   0  0  0  0  0  0  0  0  0  0  0  0
    1.7597   -1.2731    0.0000 N   0  0  0  0  0  0  0  0  0  0  0  0
    0.9106    0.7376    0.0000 N   0  0  0  0  0  0  0  0  0  0  0  0
    1.2498   -2.8423    0.0000 N   0  0  0  0  0  0  0  0  0  0  0  0
   -0.9582   -0.3900    0.0000 N   0  0  0  0  0  0  0  0  0  0  0  0
   -1.8073    1.6207    0.0000 N   0  0  0  0  0  0  0  0  0  0  0  0
    4.2228   -2.9409    0.0000 O   0  0  0  0  0  0  0  0  0  0  0  0
   -3.3791   -0.9045    0.0000 O   0  0  0  0  0  0  0  0  0  0  0  0
    0.1879   -3.7985    0.0000 O   0  0  0  0  0  0  0  0  0  0  0  0
   -2.1044    3.0185    0.0000 O   0  0  0  0  0  0  0  0  0  0  0  0
    2.2696    0.2960    0.0000 O   0  0  0  0  0  0  0  0  0  0  0  0
    0.8684    2.9199    0.0000 O   0  0  0  0  0  0  0  0  0  0  0  0
   -2.5721   -0.7330    0.0000 O   0  0  0  0  0  0  0  0  0  0  0  0
    2.0568   -2.6708    0.0000 O   0  0  0  0  0  0  0  0  0  0  0  0
   -2.0623   -0.3900    0.0000 O   0  0  0  0  0  0  0  0  0  0  0  0
   -0.3640   -3.1854    0.0000 S   0  0  0  0  0  0  0  0  0  0  0  0
   -0.9160   -2.5723    0.0000 S   0  0  0  0  0  0  0  0  0  0  0  0
  4  3  2  0
  5  3  1  0
  8  6  2  0
  9  7  2  0
 11 10  1  0
 12  4  1  0
 13  5  2  0
 14  6  1  0
 15  7  1  0
 16  8  1  0
 17  9  1  0
 18 10  1  0
 21 19  2  0
 22 20  1  0
 23 11  1  0
 32  1  1  0
 32  2  1  0
 33 12  2  0
 33 13  1  0
 33 24  1  0
 34 19  1  0
 34 20  2  0
 34 25  1  0
 35 26  1  0
 35 28  2  0
 36 27  1  0
 36 29  2  0
 37 21  1  0
 37 22  2  0
 38 14  2  0
 38 35  1  0
 39 15  2  0
 39 36  1  0
 40 24  1  0
 41 16  2  0
 41 38  1  0
 42 17  2  0
 42 39  1  0
 43 18  1  6
 44 26  1  1
 45 25  1  1
 46 27  1  1
 47 30  1  0
 48 31  1  0
 49 32  1  1
 50 44  1  0
 51 40  1  0
 52 43  1  0
 53 45  1  0
 54 46  1  0
 48 55  1  1
 56 47  1  0
 57 49  1  0
 58 23  1  0
 40 59  1  1
 60 50  2  3
 61 28  1  0
 61 41  1  0
 62 29  1  0
 62 42  1  0
 63 43  1  0
 63 54  2  0
 44 64  1  0
 64 55  2  3
 65 45  1  0
 65 56  2  0
 66 46  1  0
 66 53  2  0
 47 67  1  6
 67 51  2  3
 68 48  1  0
 68 57  2  0
 69 49  1  0
 69 52  2  0
 70 37  1  0
 71 50  1  0
 51 72  1  0
 52 73  1  0
 53 74  1  0
 54 75  1  0
 55 76  1  0
 56 77  1  0
 57 78  1  0
 79 30  1  0
 80 31  1  0
 80 79  1  0
M  END
$$$$
