
     RDKit          2D

 36 39  0  0  0  0  0  0  0  0999 V2000
   -0.3570    0.5295    0.0000 C   0  0  0  0  0  0  0  0  0  0  0  0
    0.4688   -0.2963    0.0000 N   0  0  0  0  0  0  0  0  0  0  0  0
   -0.3570   -0.3012    0.0000 C   0  0  0  0  0  0  0  0  0  0  0  0
    0.4688    0.5295    0.0000 C   0  0  0  0  0  0  0  0  0  0  0  0
   -1.0760    0.9472    0.0000 N   0  0  0  0  0  0  0  0  0  0  0  0
    4.0299   -0.7288    0.0000 C   0  0  0  0  0  0  0  0  0  0  0  0
    1.1732   -0.7043    0.0000 C   0  0  0  0  0  0  0  0  0  0  0  0
    4.2825   -1.5109    0.0000 N   0  0  0  0  0  0  0  0  0  0  0  0
    4.6955   -0.2380    0.0000 N   0  0  0  0  0  0  0  0  0  0  0  0
   -1.7951    0.5295    0.0000 C   0  0  0  0  0  0  0  0  0  0  0  0
    5.3659   -0.7288    0.0000 N   0  0  0  0  0  0  0  0  0  0  0  0
    5.0744   -1.4721    0.0000 N   0  0  0  0  0  0  0  0  0  0  0  0
    1.8874   -0.3012    0.0000 C   0  0  0  0  0  0  0  0  0  0  0  0
    1.1830    0.9376    0.0000 O   0  0  0  0  0  0  0  0  0  0  0  0
   -2.5093    0.9425    0.0000 C   0  0  0  0  0  0  0  0  0  0  0  0
    1.1683   -1.5303    0.0000 C   0  0  0  0  0  0  0  0  0  0  0  0
   -2.5093    1.7684    0.0000 C   0  0  0  0  0  0  0  0  0  0  0  0
    3.3157   -0.3108    0.0000 S   0  0  0  0  0  0  0  0  0  0  0  0
    1.8922    0.5198    0.0000 C   0  0  0  0  0  0  0  0  0  0  0  0
   -0.9352   -0.8841    0.0000 O   0  0  0  0  0  0  0  0  0  0  0  0
    2.5967   -0.7190    0.0000 C   0  0  0  0  0  0  0  0  0  0  0  0
   -3.2234    0.5295    0.0000 C   0  0  0  0  0  0  0  0  0  0  0  0
   -0.3619    1.3553    0.0000 O   0  0  0  0  0  0  0  0  0  0  0  0
   -1.7951   -0.2963    0.0000 O   0  0  0  0  0  0  0  0  0  0  0  0
    1.8776   -1.9482    0.0000 O   0  0  0  0  0  0  0  0  0  0  0  0
   -1.7951    2.1813    0.0000 O   0  0  0  0  0  0  0  0  0  0  0  0
    0.4493   -1.9385    0.0000 O   0  0  0  0  0  0  0  0  0  0  0  0
   -3.2234    2.1813    0.0000 O   0  0  0  0  0  0  0  0  0  0  0  0
   -3.2234   -0.2866    0.0000 C   0  0  0  0  0  0  0  0  0  0  0  0
   -3.9376    0.9472    0.0000 C   0  0  0  0  0  0  0  0  0  0  0  0
    3.8015   -2.1813    0.0000 C   0  0  0  0  0  0  0  0  0  0  0  0
   -4.6517   -0.2915    0.0000 C   0  0  0  0  0  0  0  0  0  0  0  0
   -3.9327   -0.7043    0.0000 C   0  0  0  0  0  0  0  0  0  0  0  0
   -4.6517    0.5344    0.0000 C   0  0  0  0  0  0  0  0  0  0  0  0
   -5.3659   -0.7043    0.0000 O   0  0  0  0  0  0  0  0  0  0  0  0
    0.3473    1.7780    0.0000 C   0  0  0  0  0  0  0  0  0  0  0  0
  2  3  1  0
  3  1  1  0
  4  1  1  0
  1  5  1  1
  6 18  1  0
  7  2  1  0
  8  6  1  0
  9  6  2  0
 10  5  1  0
 11  9  1  0
 12  8  1  0
 13  7  2  0
  4 14  1  1
 15 10  1  0
 16  7  1  0
 17 15  1  0
 18 21  1  0
 19 14  1  0
 20  3  2  0
 21 13  1  0
 22 15  1  0
  1 23  1  0
 24 10  2  0
 25 16  1  0
 26 17  1  0
 27 16  2  0
 28 17  2  0
 29 22  2  0
 30 22  1  0
 31  8  1  0
 32 33  2  0
 33 29  1  0
 34 30  2  0
 35 32  1  0
 36 23  1  0
  2  4  1  0
 19 13  1  0
 32 34  1  0
 11 12  2  0
M  END
$$$$
