
     RDKit          2D

 39 43  0  0  0  0  0  0  0  0999 V2000
    1.9520    2.2210    0.0000 F   0  0  0  0  0  0  0  0  0  0  0  0
    2.7770    0.7920    0.0000 F   0  0  0  0  0  0  0  0  0  0  0  0
    1.6500    1.0941    0.0000 F   0  0  0  0  0  0  0  0  0  0  0  0
    4.5080    0.2690    0.0000 O   0  0  0  0  0  0  0  0  0  0  0  0
    3.7935    3.9816    0.0000 N   0  0  0  0  0  0  0  0  0  0  0  0
    5.2224    1.5066    0.0000 N   0  0  0  0  0  0  0  0  0  0  0  0
    6.6515   -1.7935    0.0000 N   0  0  0  0  0  0  0  0  0  0  0  0
    3.3810    5.2512    0.0000 N   0  0  0  0  0  0  0  0  0  0  0  0
    5.9370   -3.0310    0.0000 N   0  0  0  0  0  0  0  0  0  0  0  0
    5.2224   -1.7935    0.0000 N   0  0  0  0  0  0  0  0  0  0  0  0
    5.9370   -5.5061    0.0000 N   0  0  0  0  0  0  0  0  0  0  0  0
    3.7935    3.1566    0.0000 C   0  0  0  0  0  0  0  0  0  0  0  0
    4.5080    1.9191    0.0000 C   0  0  0  0  0  0  0  0  0  0  0  0
    3.0791    1.9191    0.0000 C   0  0  0  0  0  0  0  0  0  0  0  0
    4.5080    2.7441    0.0000 C   0  0  0  0  0  0  0  0  0  0  0  0
    3.0791    2.7441    0.0000 C   0  0  0  0  0  0  0  0  0  0  0  0
    3.7935    1.5066    0.0000 C   0  0  0  0  0  0  0  0  0  0  0  0
    5.9370    0.2690    0.0000 C   0  0  0  0  0  0  0  0  0  0  0  0
    6.6515   -0.9685    0.0000 C   0  0  0  0  0  0  0  0  0  0  0  0
    7.3659   -0.5560    0.0000 C   0  0  0  0  0  0  0  0  0  0  0  0
    5.9370   -0.5560    0.0000 C   0  0  0  0  0  0  0  0  0  0  0  0
    5.2224    0.6815    0.0000 C   0  0  0  0  0  0  0  0  0  0  0  0
    4.4610    4.4666    0.0000 C   0  0  0  0  0  0  0  0  0  0  0  0
    6.6515    0.6815    0.0000 C   0  0  0  0  0  0  0  0  0  0  0  0
    7.3659    0.2690    0.0000 C   0  0  0  0  0  0  0  0  0  0  0  0
    2.3645    1.5066    0.0000 C   0  0  0  0  0  0  0  0  0  0  0  0
    3.1261    4.4666    0.0000 C   0  0  0  0  0  0  0  0  0  0  0  0
    4.2060    5.2512    0.0000 C   0  0  0  0  0  0  0  0  0  0  0  0
    8.0804   -0.9685    0.0000 C   0  0  0  0  0  0  0  0  0  0  0  0
    5.9370   -2.2060    0.0000 C   0  0  0  0  0  0  0  0  0  0  0  0
    4.6910    5.9186    0.0000 C   0  0  0  0  0  0  0  0  0  0  0  0
    5.2224   -3.4435    0.0000 C   0  0  0  0  0  0  0  0  0  0  0  0
    5.2224   -4.2686    0.0000 C   0  0  0  0  0  0  0  0  0  0  0  0
    4.5080   -3.0310    0.0000 C   0  0  0  0  0  0  0  0  0  0  0  0
    4.5080   -2.2060    0.0000 C   0  0  0  0  0  0  0  0  0  0  0  0
    4.5080   -4.6811    0.0000 C   0  0  0  0  0  0  0  0  0  0  0  0
    5.9370   -4.6811    0.0000 C   0  0  0  0  0  0  0  0  0  0  0  0
    4.5080   -5.5061    0.0000 C   0  0  0  0  0  0  0  0  0  0  0  0
    5.2224   -5.9186    0.0000 C   0  0  0  0  0  0  0  0  0  0  0  0
  1 26  1  0
  2 26  1  0
  3 26  1  0
  4 22  2  0
  5 12  1  0
  5 23  1  0
  5 27  1  0
  6 13  1  0
  6 22  1  0
  7 19  1  0
  7 30  1  0
  8 27  2  0
  8 28  1  0
  9 30  2  0
  9 32  1  0
 10 30  1  0
 10 35  2  0
 11 37  2  0
 11 39  1  0
 12 15  2  0
 12 16  1  0
 13 15  1  0
 13 17  2  0
 14 16  2  0
 14 17  1  0
 14 26  1  0
 18 21  2  0
 18 22  1  0
 18 24  1  0
 19 20  2  0
 19 21  1  0
 20 25  1  0
 20 29  1  0
 23 28  2  0
 24 25  2  0
 28 31  1  0
 32 33  1  0
 32 34  2  0
 33 36  2  0
 33 37  1  0
 34 35  1  0
 36 38  1  0
 38 39  2  0
M  END
$$$$
