
     RDKit          2D

 26 28  0  0  0  0  0  0  0  0999 V2000
    5.9962    1.0807    0.0000 O   0  0  0  0  0  0  0  0  0  0  0  0
    9.5605   -0.9956    0.0000 O   0  0  0  0  0  0  0  0  0  0  0  0
    8.8413   -2.2303    0.0000 O   0  0  0  0  0  0  0  0  0  0  0  0
    5.2769   -0.1541    0.0000 N   0  0  0  0  0  0  0  0  0  0  0  0
    2.3645   -0.1341    0.0000 C   0  0  0  0  0  0  0  0  0  0  0  0
    2.3645    1.5159    0.0000 C   0  0  0  0  0  0  0  0  0  0  0  0
    1.6500    0.2784    0.0000 C   0  0  0  0  0  0  0  0  0  0  0  0
    1.6500    1.1034    0.0000 C   0  0  0  0  0  0  0  0  0  0  0  0
    3.0790    0.2784    0.0000 C   0  0  0  0  0  0  0  0  0  0  0  0
    3.0790    1.1034    0.0000 C   0  0  0  0  0  0  0  0  0  0  0  0
    1.9520   -0.8486    0.0000 C   0  0  0  0  0  0  0  0  0  0  0  0
    2.7770   -0.8486    0.0000 C   0  0  0  0  0  0  0  0  0  0  0  0
    1.9520    2.2303    0.0000 C   0  0  0  0  0  0  0  0  0  0  0  0
    2.7770    2.2303    0.0000 C   0  0  0  0  0  0  0  0  0  0  0  0
    3.8165   -0.1628    0.0000 C   0  0  0  0  0  0  0  0  0  0  0  0
    3.8165    1.5445    0.0000 C   0  0  0  0  0  0  0  0  0  0  0  0
    4.5640    0.2612    0.0000 C   0  0  0  0  0  0  0  0  0  0  0  0
    4.5640    1.1205    0.0000 C   0  0  0  0  0  0  0  0  0  0  0  0
    5.9929    0.2557    0.0000 C   0  0  0  0  0  0  0  0  0  0  0  0
    6.7058   -0.1596    0.0000 C   0  0  0  0  0  0  0  0  0  0  0  0
    7.4219    0.2501    0.0000 C   0  0  0  0  0  0  0  0  0  0  0  0
    6.7026   -0.9846    0.0000 C   0  0  0  0  0  0  0  0  0  0  0  0
    8.1347   -0.1651    0.0000 C   0  0  0  0  0  0  0  0  0  0  0  0
    7.4155   -1.3999    0.0000 C   0  0  0  0  0  0  0  0  0  0  0  0
    8.1316   -0.9901    0.0000 C   0  0  0  0  0  0  0  0  0  0  0  0
    8.8445   -1.4053    0.0000 C   0  0  0  0  0  0  0  0  0  0  0  0
  1 19  2  0
  2 26  1  0
  3 26  2  0
  4 17  1  0
  4 19  1  0
  5  7  1  0
  5  9  1  0
  5 11  1  0
  5 12  1  0
  6  8  1  0
  6 10  1  0
  6 13  1  0
  6 14  1  0
  7  8  1  0
  9 10  2  0
  9 15  1  0
 10 16  1  0
 15 17  2  0
 16 18  2  0
 17 18  1  0
 19 20  1  0
 20 21  2  0
 20 22  1  0
 21 23  1  0
 22 24  2  0
 23 25  2  0
 24 25  1  0
 25 26  1  0
M  END
$$$$
