4838
     RDKit          2D

 20 21  0  0  1  0  0  0  0  0999 V2000
    3.5220    0.6740    0.0000 O   0  0  0  0  0  0  0  0  0  0  0  0
    4.2365   -0.5635    0.0000 O   0  0  0  0  0  0  0  0  0  0  0  0
    2.0930   -0.1510    0.0000 O   0  0  0  0  0  0  0  0  0  0  0  0
    4.9509    2.3241    0.0000 C   0  0  0  0  0  0  0  0  0  0  0  0
    5.6655    1.9116    0.0000 C   0  0  0  0  0  0  0  0  0  0  0  0
    5.6655    1.0865    0.0000 C   0  0  0  0  0  0  0  0  0  0  0  0
    4.2365    1.9116    0.0000 C   0  0  0  0  0  0  0  0  0  0  0  0
    4.2365    1.0865    0.0000 C   0  0  0  0  0  0  0  0  0  0  0  0
    4.9509    0.6740    0.0000 C   0  0  0  0  0  0  0  0  0  0  0  0
    5.3634    3.0385    0.0000 C   0  0  0  0  0  0  0  0  0  0  0  0
    4.5384    3.0385    0.0000 C   0  0  0  0  0  0  0  0  0  0  0  0
    6.3799    0.6740    0.0000 C   0  0  0  0  0  0  0  0  0  0  0  0
    3.5220   -0.1510    0.0000 C   0  0  0  0  0  0  0  0  0  0  0  0
    2.8075   -0.5635    0.0000 C   0  0  0  0  0  0  0  0  0  0  0  0
    2.8075   -1.3885    0.0000 C   0  0  0  0  0  0  0  0  0  0  0  0
    2.0930   -1.8010    0.0000 C   0  0  0  0  0  0  0  0  0  0  0  0
    3.5220   -1.8010    0.0000 C   0  0  0  0  0  0  0  0  0  0  0  0
    2.0930   -2.6260    0.0000 C   0  0  0  0  0  0  0  0  0  0  0  0
    3.5220   -2.6260    0.0000 C   0  0  0  0  0  0  0  0  0  0  0  0
    2.8075   -3.0385    0.0000 C   0  0  0  0  0  0  0  0  0  0  0  0
  1  8  1  0
  1 13  1  0
  2 13  2  0
  3 14  1  0
  4  5  1  0
  4  7  1  0
  4 10  1  0
  4 11  1  0
  5  6  1  0
  6  9  1  0
  6 12  1  0
  7  8  1  0
  8  9  1  0
 13 14  1  0
 14 15  1  0
 15 16  2  0
 15 17  1  0
 16 18  1  0
 17 19  2  0
 18 20  2  0
 19 20  1  0
M  END
$$$$
