
     RDKit          2D

 27 27  0  0  0  0  0  0  0  0999 V2000
   -0.7477    0.8930    0.0000 C   0  0  0  0  0  0  0  0  0  0  0  0
   -1.4538    0.4776    0.0000 C   0  0  0  0  0  0  0  0  0  0  0  0
    0.0000    0.4776    0.0000 C   0  0  0  0  0  0  0  0  0  0  0  0
   -0.7477    1.7238    0.0000 O   0  0  0  0  0  0  0  0  0  0  0  0
   -2.1600    0.8515    0.0000 C   0  0  0  0  0  0  0  0  0  0  0  0
    0.0000   -0.3531    0.0000 C   0  0  0  0  0  0  0  0  0  0  0  0
   -0.0415    2.1392    0.0000 C   0  0  0  0  0  0  0  0  0  0  0  0
   -0.7061   -0.7684    0.0000 C   0  0  0  0  0  0  0  0  0  0  0  0
   -2.8661    0.4361    0.0000 C   0  0  0  0  0  0  0  0  0  0  0  0
   -2.1600    1.6823    0.0000 O   0  0  0  0  0  0  0  0  0  0  0  0
    0.7061    1.7238    0.0000 C   0  0  0  0  0  0  0  0  0  0  0  0
   -0.7061   -1.6407    0.0000 N   0  0  0  0  0  0  0  0  0  0  0  0
    1.4123    2.1808    0.0000 C   0  0  0  0  0  0  0  0  0  0  0  0
    0.7061    0.8930    0.0000 O   0  0  0  0  0  0  0  0  0  0  0  0
   -1.4123   -2.0561    0.0000 C   0  0  0  0  0  0  0  0  0  0  0  0
    2.1600    1.7654    0.0000 N   0  0  0  0  0  0  0  0  0  0  0  0
   -2.1600   -1.6823    0.0000 N   0  0  0  0  0  0  0  0  0  0  0  0
   -1.4123   -2.8869    0.0000 O   0  0  0  0  0  0  0  0  0  0  0  0
    2.8661    2.1808    0.0000 C   0  0  0  0  0  0  0  0  0  0  0  0
   -2.8247   -2.0977    0.0000 C   0  0  0  0  0  0  0  0  0  0  0  0
   -3.5724   -1.6823    0.0000 C   0  0  0  0  0  0  0  0  0  0  0  0
    3.5724    2.5962    0.0000 C   0  0  0  0  0  0  0  0  0  0  0  0
   -2.1600   -0.8099    0.0000 C   0  0  0  0  0  0  0  0  0  0  0  0
   -1.4538   -0.3531    0.0000 C   0  0  0  0  0  0  0  0  0  0  0  0
   -2.8661   -0.3945    0.0000 C   0  0  0  0  0  0  0  0  0  0  0  0
    3.2815    1.4746    0.0000 C   0  0  0  0  0  0  0  0  0  0  0  0
    2.4508    2.8869    0.0000 C   0  0  0  0  0  0  0  0  0  0  0  0
  2 24  1  0
  2  5  1  0
  3  6  2  0
  4  7  1  0
 24  8  2  0
  5  9  1  0
  5 10  2  0
  7 11  1  0
  8 12  1  0
 11 13  1  0
 11 14  1  0
 12 15  1  0
 13 16  1  0
 15 17  1  0
 15 18  2  0
 16 19  1  0
 17 20  1  0
 20 21  1  0
  6  8  1  0
 19 22  1  0
 17 23  1  0
  1  2  2  0
  1  3  1  0
 23 25  1  0
  1  4  1  0
 19 26  1  0
 19 27  1  0
M  END
$$$$
