4841
     RDKit          2D

 30 33  0  0  0  0  0  0  0  0999 V2000
    1.6500   -3.9188    0.0000 F   0  0  0  0  0  0  0  0  0  0  0  0
    7.3659   -3.9188    0.0000 F   0  0  0  0  0  0  0  0  0  0  0  0
    4.5080   -1.4438    0.0000 N   0  0  0  0  0  0  0  0  0  0  0  0
    4.5080    0.2063    0.0000 N   0  0  0  0  0  0  0  0  0  0  0  0
    3.7935   -1.0313    0.0000 C   0  0  0  0  0  0  0  0  0  0  0  0
    5.2224   -1.0313    0.0000 C   0  0  0  0  0  0  0  0  0  0  0  0
    4.5080   -2.2688    0.0000 C   0  0  0  0  0  0  0  0  0  0  0  0
    3.7935   -0.2063    0.0000 C   0  0  0  0  0  0  0  0  0  0  0  0
    5.2224   -0.2063    0.0000 C   0  0  0  0  0  0  0  0  0  0  0  0
    4.5080    1.0313    0.0000 C   0  0  0  0  0  0  0  0  0  0  0  0
    3.7935   -2.6813    0.0000 C   0  0  0  0  0  0  0  0  0  0  0  0
    5.2224   -2.6813    0.0000 C   0  0  0  0  0  0  0  0  0  0  0  0
    5.2224    1.4438    0.0000 C   0  0  0  0  0  0  0  0  0  0  0  0
    3.7935   -3.5063    0.0000 C   0  0  0  0  0  0  0  0  0  0  0  0
    5.9370   -2.2688    0.0000 C   0  0  0  0  0  0  0  0  0  0  0  0
    3.0791   -2.2688    0.0000 C   0  0  0  0  0  0  0  0  0  0  0  0
    5.2224   -3.5063    0.0000 C   0  0  0  0  0  0  0  0  0  0  0  0
    3.0791   -3.9188    0.0000 C   0  0  0  0  0  0  0  0  0  0  0  0
    6.6515   -2.6813    0.0000 C   0  0  0  0  0  0  0  0  0  0  0  0
    2.3645   -2.6813    0.0000 C   0  0  0  0  0  0  0  0  0  0  0  0
    5.9370   -3.9188    0.0000 C   0  0  0  0  0  0  0  0  0  0  0  0
    5.2224    2.2688    0.0000 C   0  0  0  0  0  0  0  0  0  0  0  0
    2.3645   -3.5063    0.0000 C   0  0  0  0  0  0  0  0  0  0  0  0
    6.6515   -3.5063    0.0000 C   0  0  0  0  0  0  0  0  0  0  0  0
    5.9370    2.6813    0.0000 C   0  0  0  0  0  0  0  0  0  0  0  0
    5.9370    3.5063    0.0000 C   0  0  0  0  0  0  0  0  0  0  0  0
    6.6515    2.2688    0.0000 C   0  0  0  0  0  0  0  0  0  0  0  0
    6.6515    3.9188    0.0000 C   0  0  0  0  0  0  0  0  0  0  0  0
    7.3659    2.6813    0.0000 C   0  0  0  0  0  0  0  0  0  0  0  0
    7.3659    3.5063    0.0000 C   0  0  0  0  0  0  0  0  0  0  0  0
  1 23  1  0
  2 24  1  0
  3  5  1  0
  3  6  1  0
  3  7  1  0
  4  8  1  0
  4  9  1  0
  4 10  1  0
  5  8  1  0
  6  9  1  0
  7 11  1  0
  7 12  1  0
 10 13  1  0
 11 14  2  0
 11 16  1  0
 12 15  2  0
 12 17  1  0
 13 22  2  0
 14 18  1  0
 15 19  1  0
 16 20  2  0
 17 21  2  0
 18 23  2  0
 19 24  2  0
 20 23  1  0
 21 24  1  0
 22 25  1  0
 25 26  2  0
 25 27  1  0
 26 28  1  0
 27 29  2  0
 28 30  2  0
 29 30  1  0
M  END
$$$$
