
     RDKit          2D

 18 19  0  0  1  0  0  0  0  0999 V2000
    3.7935    1.2433    0.0000 O   0  0  0  0  0  0  0  0  0  0  0  0
    3.0791    0.0058    0.0000 N   0  0  0  0  0  0  0  0  0  0  0  0
    5.6350    1.9578    0.0000 N   0  0  0  0  0  0  0  0  0  0  0  0
    4.5080    0.0058    0.0000 C   0  0  0  0  0  0  0  0  0  0  0  0
    4.9205    0.7202    0.0000 C   0  0  0  0  0  0  0  0  0  0  0  0
    5.3330    0.0058    0.0000 C   0  0  0  0  0  0  0  0  0  0  0  0
    4.9205    1.5453    0.0000 C   0  0  0  0  0  0  0  0  0  0  0  0
    4.5080   -0.8192    0.0000 C   0  0  0  0  0  0  0  0  0  0  0  0
    3.7935    0.4183    0.0000 C   0  0  0  0  0  0  0  0  0  0  0  0
    5.2224   -1.2318    0.0000 C   0  0  0  0  0  0  0  0  0  0  0  0
    3.7935   -1.2318    0.0000 C   0  0  0  0  0  0  0  0  0  0  0  0
    3.0791   -0.8192    0.0000 C   0  0  0  0  0  0  0  0  0  0  0  0
    2.3645    0.4183    0.0000 C   0  0  0  0  0  0  0  0  0  0  0  0
    5.2224   -2.0568    0.0000 C   0  0  0  0  0  0  0  0  0  0  0  0
    3.7935   -2.0568    0.0000 C   0  0  0  0  0  0  0  0  0  0  0  0
    4.5080   -2.4693    0.0000 C   0  0  0  0  0  0  0  0  0  0  0  0
    2.3645   -1.2318    0.0000 C   0  0  0  0  0  0  0  0  0  0  0  0
    1.6500    0.0058    0.0000 C   0  0  0  0  0  0  0  0  0  0  0  0
  1  9  2  0
  2  9  1  0
  2 12  1  0
  2 13  1  0
  3  7  1  0
  4  5  1  0
  4  6  1  0
  4  8  1  0
  4  9  1  1
  5  6  1  0
  5  7  1  1
  8 10  2  0
  8 11  1  0
 10 14  1  0
 11 15  2  0
 12 17  1  0
 13 18  1  0
 14 16  2  0
 15 16  1  0
M  END
$$$$
