
     RDKit          2D

 29 33  0  0  0  0  0  0  0  0999 V2000
   10.6315  -10.3362    0.0000 C   0  0  0  0  0  0  0  0  0  0  0  0
    9.9170  -10.7487    0.0000 C   0  0  0  0  0  0  0  0  0  0  0  0
    9.9170  -11.5737    0.0000 C   0  0  0  0  0  0  0  0  0  0  0  0
   10.6315  -11.9862    0.0000 C   0  0  0  0  0  0  0  0  0  0  0  0
   11.3459  -11.5737    0.0000 C   0  0  0  0  0  0  0  0  0  0  0  0
   11.3459  -10.7487    0.0000 C   0  0  0  0  0  0  0  0  0  0  0  0
   12.0603  -10.3362    0.0000 C   0  0  0  0  0  0  0  0  0  0  0  0
   12.0603  -11.9862    0.0000 C   0  0  0  0  0  0  0  0  0  0  0  0
   12.7749  -11.5737    0.0000 C   0  0  0  0  0  0  0  0  0  0  0  0
   12.7749  -10.7487    0.0000 C   0  0  0  0  0  0  0  0  0  0  0  0
   12.7749   -9.0986    0.0000 C   0  0  0  0  0  0  0  0  0  0  0  0
   12.0603   -9.5112    0.0000 C   0  0  0  0  0  0  0  0  0  0  0  0
   13.4893  -10.3362    0.0000 C   0  0  0  0  0  0  0  0  0  0  0  0
   13.4893   -9.5112    0.0000 C   0  0  0  0  0  0  0  0  0  0  0  0
   14.2740   -9.2562    0.0000 C   0  0  0  0  0  0  0  0  0  0  0  0
   14.2740  -10.5911    0.0000 C   0  0  0  0  0  0  0  0  0  0  0  0
   14.7589   -9.9237    0.0000 C   0  0  0  0  0  0  0  0  0  0  0  0
    9.2025  -11.9862    0.0000 O   0  0  0  0  0  0  0  0  0  0  0  0
   12.0603  -12.8112    0.0000 Cl  0  0  0  0  0  0  0  0  0  0  0  0
   14.2740   -8.4312    0.0000 C   0  0  0  0  0  0  0  0  0  0  0  0
   13.5595   -8.0187    0.0000 C   0  0  0  0  0  0  0  0  0  0  0  0
   14.9884   -8.0187    0.0000 O   0  0  0  0  0  0  0  0  0  0  0  0
   14.9884   -8.8437    0.0000 O   0  0  0  0  0  0  0  0  0  0  0  0
   13.4893   -8.6862    0.0000 C   0  0  0  0  0  0  0  0  0  0  0  0
   11.3459   -9.9237    0.0000 C   0  0  0  0  0  0  0  0  0  0  0  0
    9.9170   -9.9237    0.0000 C   0  0  0  0  0  0  0  0  0  0  0  0
   15.7029   -9.2562    0.0000 C   0  0  0  0  0  0  0  0  0  0  0  0
   16.4173   -8.8437    0.0000 C   0  0  0  0  0  0  0  0  0  0  0  0
   15.7029  -10.0812    0.0000 O   0  0  0  0  0  0  0  0  0  0  0  0
  1  2  1  0
  2  3  1  0
  3  4  1  0
  4  5  2  0
  1  6  1  0
  7  6  1  0
  6  5  1  0
  5  8  1  0
  8  9  2  0
 10  9  1  6
 10 13  1  0
  7 10  1  0
  7 12  1  1
 11 12  1  0
 11 14  1  0
 15 14  1  0
 14 13  1  0
 13 16  1  1
 16 17  1  0
 15 17  1  0
  3 18  2  0
  8 19  1  0
 15 20  1  0
 20 21  1  0
 20 22  2  0
 15 23  1  6
 14 24  1  1
  6 25  1  1
  2 26  1  6
  1 26  1  6
 23 27  1  0
 27 28  1  0
 27 29  2  0
M  END
$$$$
