
     RDKit          2D

 27 29  0  0  1  0  0  0  0  0999 V2000
    4.5080   -4.8717    0.0000 Cl  0  0  0  0  0  0  0  0  0  0  0  0
    3.7935   -1.1592    0.0000 O   0  0  0  0  0  0  0  0  0  0  0  0
    2.3645    4.6160    0.0000 O   0  0  0  0  0  0  0  0  0  0  0  0
    1.6500    3.3784    0.0000 O   0  0  0  0  0  0  0  0  0  0  0  0
    3.7935    1.3159    0.0000 N   0  0  0  0  0  0  0  0  0  0  0  0
    5.2224   -0.3341    0.0000 N   0  0  0  0  0  0  0  0  0  0  0  0
    3.7935   -0.3341    0.0000 C   0  0  0  0  0  0  0  0  0  0  0  0
    3.0791    0.0784    0.0000 C   0  0  0  0  0  0  0  0  0  0  0  0
    4.5080    0.0784    0.0000 C   0  0  0  0  0  0  0  0  0  0  0  0
    3.0791    0.9034    0.0000 C   0  0  0  0  0  0  0  0  0  0  0  0
    4.5080    0.9034    0.0000 C   0  0  0  0  0  0  0  0  0  0  0  0
    3.7935    2.1409    0.0000 C   0  0  0  0  0  0  0  0  0  0  0  0
    3.0791    2.5534    0.0000 C   0  0  0  0  0  0  0  0  0  0  0  0
    4.5080   -1.5717    0.0000 C   0  0  0  0  0  0  0  0  0  0  0  0
    3.0791    3.3784    0.0000 C   0  0  0  0  0  0  0  0  0  0  0  0
    4.5080   -2.3967    0.0000 C   0  0  0  0  0  0  0  0  0  0  0  0
    5.2224   -1.1592    0.0000 C   0  0  0  0  0  0  0  0  0  0  0  0
    5.2224   -2.8092    0.0000 C   0  0  0  0  0  0  0  0  0  0  0  0
    3.7935   -2.8092    0.0000 C   0  0  0  0  0  0  0  0  0  0  0  0
    2.3645    3.7910    0.0000 C   0  0  0  0  0  0  0  0  0  0  0  0
    5.9370   -1.5717    0.0000 C   0  0  0  0  0  0  0  0  0  0  0  0
    5.2224   -3.6342    0.0000 C   0  0  0  0  0  0  0  0  0  0  0  0
    3.7935   -3.6342    0.0000 C   0  0  0  0  0  0  0  0  0  0  0  0
    6.6515   -1.1592    0.0000 C   0  0  0  0  0  0  0  0  0  0  0  0
    4.5080   -4.0467    0.0000 C   0  0  0  0  0  0  0  0  0  0  0  0
    5.9370    0.0784    0.0000 C   0  0  0  0  0  0  0  0  0  0  0  0
    6.6515   -0.3341    0.0000 C   0  0  0  0  0  0  0  0  0  0  0  0
  1 25  1  0
  2  7  1  0
  2 14  1  0
  3 20  1  0
  4 20  2  0
  5 10  1  0
  5 11  1  0
  5 12  1  0
  6 17  2  0
  6 26  1  0
  7  8  1  0
  7  9  1  0
  8 10  1  0
  9 11  1  0
 12 13  1  0
 13 15  1  0
 14 16  1  0
 14 17  1  0
 15 20  1  0
 16 18  2  0
 16 19  1  0
 17 21  1  0
 18 22  1  0
 19 23  2  0
 21 24  2  0
 22 25  2  0
 23 25  1  0
 24 27  1  0
 26 27  2  0
M  END
$$$$
