
     RDKit          2D

 18 18  0  0  1  0  0  0  0  0999 V2000
    3.1095    1.5011    0.0000 O   0  0  0  0  0  0  0  0  0  0  0  0
    2.0930    0.7867    0.0000 O   0  0  0  0  0  0  0  0  0  0  0  0
    3.5220   -1.6884    0.0000 O   0  0  0  0  0  0  0  0  0  0  0  0
    2.0930   -0.8634    0.0000 O   0  0  0  0  0  0  0  0  0  0  0  0
    4.7595    1.5011    0.0000 O   0  0  0  0  0  0  0  0  0  0  0  0
    7.0944   -0.4509    0.0000 O   0  0  0  0  0  0  0  0  0  0  0  0
    6.3799    0.7867    0.0000 O   0  0  0  0  0  0  0  0  0  0  0  0
    4.9509   -0.8634    0.0000 N   0  0  0  0  0  0  0  0  0  0  0  0
    3.5220    0.7867    0.0000 C   0  0  0  0  0  0  0  0  0  0  0  0
    4.2365   -0.4509    0.0000 C   0  0  0  0  0  0  0  0  0  0  0  0
    4.2365    0.3741    0.0000 C   0  0  0  0  0  0  0  0  0  0  0  0
    2.8075    0.3741    0.0000 C   0  0  0  0  0  0  0  0  0  0  0  0
    3.5220   -0.8634    0.0000 C   0  0  0  0  0  0  0  0  0  0  0  0
    2.8075   -0.4509    0.0000 C   0  0  0  0  0  0  0  0  0  0  0  0
    3.9345    1.5011    0.0000 C   0  0  0  0  0  0  0  0  0  0  0  0
    5.6655   -0.4509    0.0000 C   0  0  0  0  0  0  0  0  0  0  0  0
    6.3799   -0.8634    0.0000 C   0  0  0  0  0  0  0  0  0  0  0  0
    5.6655    0.3741    0.0000 C   0  0  0  0  0  0  0  0  0  0  0  0
  9  1  1  6
 12  2  1  6
 13  3  1  6
 14  4  1  1
  5 15  1  0
  6 17  1  0
  7 18  1  0
 10  8  1  6
  8 16  1  0
  9 11  1  0
  9 12  1  0
  9 15  1  0
 10 11  1  0
 10 13  1  0
 12 14  1  0
 13 14  1  0
 16 17  1  0
 16 18  1  0
M  END
$$$$
