
     RDKit          2D

 20 21  0  0  0  0  0  0  0  0999 V2000
    1.6500   -2.6582    0.0000 F   0  0  0  0  0  0  0  0  0  0  0  0
    2.7770   -2.9602    0.0000 F   0  0  0  0  0  0  0  0  0  0  0  0
    1.9520   -1.5312    0.0000 F   0  0  0  0  0  0  0  0  0  0  0  0
    3.7935    2.7044    0.0000 O   0  0  0  0  0  0  0  0  0  0  0  0
    3.0791    1.4669    0.0000 O   0  0  0  0  0  0  0  0  0  0  0  0
    3.7935    0.2294    0.0000 N   0  0  0  0  0  0  0  0  0  0  0  0
    5.2224    0.2294    0.0000 N   0  0  0  0  0  0  0  0  0  0  0  0
    3.7935   -0.5957    0.0000 C   0  0  0  0  0  0  0  0  0  0  0  0
    3.0791   -1.8332    0.0000 C   0  0  0  0  0  0  0  0  0  0  0  0
    3.0791   -1.0082    0.0000 C   0  0  0  0  0  0  0  0  0  0  0  0
    4.5080    0.6419    0.0000 C   0  0  0  0  0  0  0  0  0  0  0  0
    4.5080   -1.0082    0.0000 C   0  0  0  0  0  0  0  0  0  0  0  0
    3.7935   -2.2457    0.0000 C   0  0  0  0  0  0  0  0  0  0  0  0
    4.5080    1.4669    0.0000 C   0  0  0  0  0  0  0  0  0  0  0  0
    4.5080   -1.8332    0.0000 C   0  0  0  0  0  0  0  0  0  0  0  0
    2.3645   -2.2457    0.0000 C   0  0  0  0  0  0  0  0  0  0  0  0
    5.2224    1.8794    0.0000 C   0  0  0  0  0  0  0  0  0  0  0  0
    5.9370    1.4669    0.0000 C   0  0  0  0  0  0  0  0  0  0  0  0
    5.9370    0.6419    0.0000 C   0  0  0  0  0  0  0  0  0  0  0  0
    3.7935    1.8794    0.0000 C   0  0  0  0  0  0  0  0  0  0  0  0
  1 16  1  0
  2 16  1  0
  3 16  1  0
  4 20  1  0
  5 20  2  0
  6  8  1  0
  6 11  1  0
  7 11  2  0
  7 19  1  0
  8 10  1  0
  8 12  2  0
  9 10  2  0
  9 13  1  0
  9 16  1  0
 11 14  1  0
 12 15  1  0
 13 15  2  0
 14 17  2  0
 14 20  1  0
 17 18  1  0
 18 19  2  0
M  END
$$$$
