
     RDKit          2D

 27 29  0  0  0  0  0  0  0  0999 V2000
    3.0791    3.9683    0.0000 Cl  0  0  0  0  0  0  0  0  0  0  0  0
    4.5080   -1.8068    0.0000 O   0  0  0  0  0  0  0  0  0  0  0  0
    3.0791   -3.4568    0.0000 O   0  0  0  0  0  0  0  0  0  0  0  0
    3.7935    1.9058    0.0000 C   0  0  0  0  0  0  0  0  0  0  0  0
    4.5080    1.4933    0.0000 C   0  0  0  0  0  0  0  0  0  0  0  0
    3.7935    2.7308    0.0000 C   0  0  0  0  0  0  0  0  0  0  0  0
    4.5080    0.6683    0.0000 C   0  0  0  0  0  0  0  0  0  0  0  0
    3.0791    1.4933    0.0000 C   0  0  0  0  0  0  0  0  0  0  0  0
    5.2224    1.9058    0.0000 C   0  0  0  0  0  0  0  0  0  0  0  0
    5.2224    0.2558    0.0000 C   0  0  0  0  0  0  0  0  0  0  0  0
    3.7935    0.2558    0.0000 C   0  0  0  0  0  0  0  0  0  0  0  0
    3.0791    3.1433    0.0000 C   0  0  0  0  0  0  0  0  0  0  0  0
    3.0791    0.6683    0.0000 C   0  0  0  0  0  0  0  0  0  0  0  0
    2.3645    1.9058    0.0000 C   0  0  0  0  0  0  0  0  0  0  0  0
    5.2224    2.7308    0.0000 C   0  0  0  0  0  0  0  0  0  0  0  0
    5.9370    1.4933    0.0000 C   0  0  0  0  0  0  0  0  0  0  0  0
    5.2224   -0.5693    0.0000 C   0  0  0  0  0  0  0  0  0  0  0  0
    3.7935   -0.5693    0.0000 C   0  0  0  0  0  0  0  0  0  0  0  0
    4.5080   -0.9818    0.0000 C   0  0  0  0  0  0  0  0  0  0  0  0
    2.3645    0.2558    0.0000 C   0  0  0  0  0  0  0  0  0  0  0  0
    1.6500    1.4933    0.0000 C   0  0  0  0  0  0  0  0  0  0  0  0
    5.9370    3.1433    0.0000 C   0  0  0  0  0  0  0  0  0  0  0  0
    6.6515    1.9058    0.0000 C   0  0  0  0  0  0  0  0  0  0  0  0
    1.6500    0.6683    0.0000 C   0  0  0  0  0  0  0  0  0  0  0  0
    6.6515    2.7308    0.0000 C   0  0  0  0  0  0  0  0  0  0  0  0
    3.7935   -2.2193    0.0000 C   0  0  0  0  0  0  0  0  0  0  0  0
    3.7935   -3.0443    0.0000 C   0  0  0  0  0  0  0  0  0  0  0  0
  1 12  1  0
  2 19  1  0
  2 26  1  0
  3 27  1  0
  4  5  2  0
  4  6  1  0
  4  8  1  0
  5  7  1  0
  5  9  1  0
  6 12  1  0
  7 10  2  0
  7 11  1  0
  8 13  2  0
  8 14  1  0
  9 15  2  0
  9 16  1  0
 10 17  1  0
 11 18  2  0
 13 20  1  0
 14 21  2  0
 15 22  1  0
 16 23  2  0
 17 19  2  0
 18 19  1  0
 20 24  2  0
 21 24  1  0
 22 25  2  0
 23 25  1  0
 26 27  1  0
M  END
$$$$
