4816
     RDKit          2D

 18 20  0  0  0  0  0  0  0  0999 V2000
    3.6957    1.4452    0.0000 O   0  0  0  0  0  0  0  0  0  0  0  0
    3.6957   -1.7230    0.0000 O   0  0  0  0  0  0  0  0  0  0  0  0
    5.0805    1.4726    0.0000 O   0  0  0  0  0  0  0  0  0  0  0  0
    2.3109    1.4726    0.0000 O   0  0  0  0  0  0  0  0  0  0  0  0
    4.3817    0.2571    0.0000 C   0  0  0  0  0  0  0  0  0  0  0  0
    3.0098    0.2571    0.0000 C   0  0  0  0  0  0  0  0  0  0  0  0
    4.3817   -0.5350    0.0000 C   0  0  0  0  0  0  0  0  0  0  0  0
    3.0098   -0.5350    0.0000 C   0  0  0  0  0  0  0  0  0  0  0  0
    3.6957    0.6531    0.0000 C   0  0  0  0  0  0  0  0  0  0  0  0
    3.6957   -0.9310    0.0000 C   0  0  0  0  0  0  0  0  0  0  0  0
    5.0897    0.6806    0.0000 C   0  0  0  0  0  0  0  0  0  0  0  0
    2.3018    0.6806    0.0000 C   0  0  0  0  0  0  0  0  0  0  0  0
    5.0897   -0.9585    0.0000 C   0  0  0  0  0  0  0  0  0  0  0  0
    2.3018   -0.9585    0.0000 C   0  0  0  0  0  0  0  0  0  0  0  0
    5.8074    0.2736    0.0000 C   0  0  0  0  0  0  0  0  0  0  0  0
    1.5841    0.2736    0.0000 C   0  0  0  0  0  0  0  0  0  0  0  0
    5.8074   -0.5514    0.0000 C   0  0  0  0  0  0  0  0  0  0  0  0
    1.5841   -0.5514    0.0000 C   0  0  0  0  0  0  0  0  0  0  0  0
  1  9  2  0
  2 10  2  0
  3 11  1  0
  4 12  1  0
  5  7  2  0
  5  9  1  0
  5 11  1  0
  6  8  2  0
  6  9  1  0
  6 12  1  0
  7 10  1  0
  7 13  1  0
  8 10  1  0
  8 14  1  0
 11 15  2  0
 12 16  2  0
 13 17  2  0
 14 18  2  0
 15 17  1  0
 16 18  1  0
M  END
$$$$
