
     RDKit          2D

118123  0  0  1  0  0  0  0  0999 V2000
   10.3184   -8.4337    0.0000 O   0  0  0  0  0  0  0  0  0  0  0  0
   11.3441   -8.8926    0.0000 O   0  0  0  0  0  0  0  0  0  0  0  0
   13.4840  -10.9588    0.0000 O   0  0  0  0  0  0  0  0  0  0  0  0
    7.3517   -8.2158    0.0000 O   0  0  0  0  0  0  0  0  0  0  0  0
    7.4553   -5.2430    0.0000 O   0  0  0  0  0  0  0  0  0  0  0  0
    7.2852   -4.4357    0.0000 O   0  0  0  0  0  0  0  0  0  0  0  0
    5.9907   -1.7576    0.0000 O   0  0  0  0  0  0  0  0  0  0  0  0
    5.8205   -0.9503    0.0000 O   0  0  0  0  0  0  0  0  0  0  0  0
    5.9242    2.0224    0.0000 O   0  0  0  0  0  0  0  0  0  0  0  0
    8.5505    3.4191    0.0000 O   0  0  0  0  0  0  0  0  0  0  0  0
    7.2559    6.0972    0.0000 O   0  0  0  0  0  0  0  0  0  0  0  0
   10.0525    6.6865    0.0000 O   0  0  0  0  0  0  0  0  0  0  0  0
   10.1189    2.9065    0.0000 O   0  0  0  0  0  0  0  0  0  0  0  0
    9.6750    1.5482    0.0000 O   0  0  0  0  0  0  0  0  0  0  0  0
    9.8824    7.4938    0.0000 O   0  0  0  0  0  0  0  0  0  0  0  0
   10.4964    8.0448    0.0000 O   0  0  0  0  0  0  0  0  0  0  0  0
   11.3842   10.7613    0.0000 O   0  0  0  0  0  0  0  0  0  0  0  0
    7.4633   12.0428    0.0000 O   0  0  0  0  0  0  0  0  0  0  0  0
   12.1684   10.5050    0.0000 O   0  0  0  0  0  0  0  0  0  0  0  0
    9.8744   -9.7920    0.0000 N   0  0  0  0  0  0  0  0  0  0  0  0
   12.0565  -10.1313    0.0000 N   0  0  0  0  0  0  0  0  0  0  0  0
    8.7500   -7.9211    0.0000 N   0  0  0  0  0  0  0  0  0  0  0  0
   14.2006   -9.7226    0.0000 N   0  0  0  0  0  0  0  0  0  0  0  0
    8.8164  -11.7013    0.0000 N   0  0  0  0  0  0  0  0  0  0  0  0
    7.0115   -6.6013    0.0000 N   0  0  0  0  0  0  0  0  0  0  0  0
    5.8870   -4.7304    0.0000 N   0  0  0  0  0  0  0  0  0  0  0  0
    6.9450   -2.8212    0.0000 N   0  0  0  0  0  0  0  0  0  0  0  0
    5.1868   -8.2007    0.0000 N   0  0  0  0  0  0  0  0  0  0  0  0
    7.2188   -0.6557    0.0000 N   0  0  0  0  0  0  0  0  0  0  0  0
    6.8785    0.9589    0.0000 N   0  0  0  0  0  0  0  0  0  0  0  0
    7.1523    3.1244    0.0000 N   0  0  0  0  0  0  0  0  0  0  0  0
    3.5344   -3.9615    0.0000 N   0  0  0  0  0  0  0  0  0  0  0  0
    8.2103    5.0336    0.0000 N   0  0  0  0  0  0  0  0  0  0  0  0
    4.0595    0.2861    0.0000 N   0  0  0  0  0  0  0  0  0  0  0  0
    8.4841    7.1992    0.0000 N   0  0  0  0  0  0  0  0  0  0  0  0
    4.1968   -1.0417    0.0000 N   0  0  0  0  0  0  0  0  0  0  0  0
    9.5420    9.1084    0.0000 N   0  0  0  0  0  0  0  0  0  0  0  0
    2.5801   -2.8980    0.0000 N   0  0  0  0  0  0  0  0  0  0  0  0
    2.1362   -4.2562    0.0000 N   0  0  0  0  0  0  0  0  0  0  0  0
   11.7245    9.1468    0.0000 N   0  0  0  0  0  0  0  0  0  0  0  0
   10.6275  -10.1289    0.0000 C   0  0  0  0  0  0  0  0  0  0  0  0
   10.5399  -10.9492    0.0000 C   0  0  0  0  0  0  0  0  0  0  0  0
    9.7326  -11.1194    0.0000 C   0  0  0  0  0  0  0  0  0  0  0  0
    9.3214  -10.4042    0.0000 C   0  0  0  0  0  0  0  0  0  0  0  0
    9.7043   -8.9847    0.0000 C   0  0  0  0  0  0  0  0  0  0  0  0
   11.3427   -9.7176    0.0000 C   0  0  0  0  0  0  0  0  0  0  0  0
    8.9201   -8.7284    0.0000 C   0  0  0  0  0  0  0  0  0  0  0  0
    8.3060   -9.2794    0.0000 C   0  0  0  0  0  0  0  0  0  0  0  0
   12.7717   -9.7201    0.0000 C   0  0  0  0  0  0  0  0  0  0  0  0
    8.4762  -10.0867    0.0000 C   0  0  0  0  0  0  0  0  0  0  0  0
   12.7731   -8.8951    0.0000 C   0  0  0  0  0  0  0  0  0  0  0  0
    7.8622  -10.6377    0.0000 C   0  0  0  0  0  0  0  0  0  0  0  0
   13.4854  -10.1338    0.0000 C   0  0  0  0  0  0  0  0  0  0  0  0
   12.0593   -8.4813    0.0000 C   0  0  0  0  0  0  0  0  0  0  0  0
   13.4883   -8.4838    0.0000 C   0  0  0  0  0  0  0  0  0  0  0  0
    7.9658   -7.6648    0.0000 C   0  0  0  0  0  0  0  0  0  0  0  0
    8.0324  -11.4449    0.0000 C   0  0  0  0  0  0  0  0  0  0  0  0
    7.7957   -6.8575    0.0000 C   0  0  0  0  0  0  0  0  0  0  0  0
    6.0571   -5.5377    0.0000 C   0  0  0  0  0  0  0  0  0  0  0  0
    6.8413   -5.7940    0.0000 C   0  0  0  0  0  0  0  0  0  0  0  0
    5.4431   -6.0887    0.0000 C   0  0  0  0  0  0  0  0  0  0  0  0
    5.1868   -6.8729    0.0000 C   0  0  0  0  0  0  0  0  0  0  0  0
    6.3309   -3.3722    0.0000 C   0  0  0  0  0  0  0  0  0  0  0  0
    6.5011   -4.1795    0.0000 C   0  0  0  0  0  0  0  0  0  0  0  0
    5.5468   -3.1159    0.0000 C   0  0  0  0  0  0  0  0  0  0  0  0
    4.4061   -7.1243    0.0000 C   0  0  0  0  0  0  0  0  0  0  0  0
    5.6683   -7.5368    0.0000 C   0  0  0  0  0  0  0  0  0  0  0  0
    4.4061   -7.9493    0.0000 C   0  0  0  0  0  0  0  0  0  0  0  0
    4.9327   -3.6668    0.0000 C   0  0  0  0  0  0  0  0  0  0  0  0
    7.3889   -1.4630    0.0000 C   0  0  0  0  0  0  0  0  0  0  0  0
    6.7749   -2.0139    0.0000 C   0  0  0  0  0  0  0  0  0  0  0  0
    3.6917   -6.7118    0.0000 C   0  0  0  0  0  0  0  0  0  0  0  0
    4.1485   -3.4106    0.0000 C   0  0  0  0  0  0  0  0  0  0  0  0
    8.1731   -1.7192    0.0000 C   0  0  0  0  0  0  0  0  0  0  0  0
    6.2645    0.4079    0.0000 C   0  0  0  0  0  0  0  0  0  0  0  0
    3.6917   -8.3618    0.0000 C   0  0  0  0  0  0  0  0  0  0  0  0
    7.3224    2.3171    0.0000 C   0  0  0  0  0  0  0  0  0  0  0  0
    7.5963    4.4827    0.0000 C   0  0  0  0  0  0  0  0  0  0  0  0
    6.4346   -0.3994    0.0000 C   0  0  0  0  0  0  0  0  0  0  0  0
    2.9772   -7.1243    0.0000 C   0  0  0  0  0  0  0  0  0  0  0  0
    6.8120    4.7389    0.0000 C   0  0  0  0  0  0  0  0  0  0  0  0
    5.4803    0.6642    0.0000 C   0  0  0  0  0  0  0  0  0  0  0  0
    2.9772   -7.9493    0.0000 C   0  0  0  0  0  0  0  0  0  0  0  0
    8.1066    2.0608    0.0000 C   0  0  0  0  0  0  0  0  0  0  0  0
    6.7084    1.7662    0.0000 C   0  0  0  0  0  0  0  0  0  0  0  0
    8.7872   -1.1683    0.0000 C   0  0  0  0  0  0  0  0  0  0  0  0
    7.7664    3.6754    0.0000 C   0  0  0  0  0  0  0  0  0  0  0  0
    6.6419    5.5462    0.0000 C   0  0  0  0  0  0  0  0  0  0  0  0
    4.8662    0.1132    0.0000 C   0  0  0  0  0  0  0  0  0  0  0  0
    8.7207    2.6118    0.0000 C   0  0  0  0  0  0  0  0  0  0  0  0
    5.8577    5.8025    0.0000 C   0  0  0  0  0  0  0  0  0  0  0  0
    8.6542    6.3919    0.0000 C   0  0  0  0  0  0  0  0  0  0  0  0
    8.0401    5.8409    0.0000 C   0  0  0  0  0  0  0  0  0  0  0  0
    8.6170   -0.3610    0.0000 C   0  0  0  0  0  0  0  0  0  0  0  0
    9.5713   -1.4245    0.0000 C   0  0  0  0  0  0  0  0  0  0  0  0
    2.7502   -3.7053    0.0000 C   0  0  0  0  0  0  0  0  0  0  0  0
    5.6876    6.6098    0.0000 C   0  0  0  0  0  0  0  0  0  0  0  0
    4.9510   -0.7074    0.0000 C   0  0  0  0  0  0  0  0  0  0  0  0
    9.4384    6.1356    0.0000 C   0  0  0  0  0  0  0  0  0  0  0  0
    8.9280    8.5574    0.0000 C   0  0  0  0  0  0  0  0  0  0  0  0
    9.2311    0.1900    0.0000 C   0  0  0  0  0  0  0  0  0  0  0  0
   10.1854   -0.8736    0.0000 C   0  0  0  0  0  0  0  0  0  0  0  0
    9.5048    2.3555    0.0000 C   0  0  0  0  0  0  0  0  0  0  0  0
    9.0981    7.7501    0.0000 C   0  0  0  0  0  0  0  0  0  0  0  0
    8.1438    8.8137    0.0000 C   0  0  0  0  0  0  0  0  0  0  0  0
   10.0153   -0.0663    0.0000 C   0  0  0  0  0  0  0  0  0  0  0  0
    3.6458   -0.4276    0.0000 C   0  0  0  0  0  0  0  0  0  0  0  0
    7.9737    9.6210    0.0000 C   0  0  0  0  0  0  0  0  0  0  0  0
   10.3262    8.8521    0.0000 C   0  0  0  0  0  0  0  0  0  0  0  0
   10.9403    9.4030    0.0000 C   0  0  0  0  0  0  0  0  0  0  0  0
    8.5878   10.1719    0.0000 C   0  0  0  0  0  0  0  0  0  0  0  0
    7.1895    9.8772    0.0000 C   0  0  0  0  0  0  0  0  0  0  0  0
   10.7701   10.2103    0.0000 C   0  0  0  0  0  0  0  0  0  0  0  0
    8.4176   10.9792    0.0000 C   0  0  0  0  0  0  0  0  0  0  0  0
    7.0193   10.6845    0.0000 C   0  0  0  0  0  0  0  0  0  0  0  0
    7.6334   11.2355    0.0000 C   0  0  0  0  0  0  0  0  0  0  0  0
   12.3386    9.6977    0.0000 C   0  0  0  0  0  0  0  0  0  0  0  0
   13.1227    9.4415    0.0000 C   0  0  0  0  0  0  0  0  0  0  0  0
  1 45  2  0
  2 46  2  0
  3 53  2  0
  4 56  2  0
  5 60  2  0
  6 64  2  0
  7 71  2  0
  8 79  2  0
  9 85  2  0
 10 87  2  0
 11 93  2  0
 12 99  1  0
 13103  1  0
 14103  2  0
 15104  2  0
 16109  2  0
 17113  1  0
 18116  1  0
 19117  2  0
 20 41  1  0
 20 44  1  0
 20 45  1  0
 21 46  1  0
 49 21  1  1
 47 22  1  0
 22 56  1  0
 23 53  1  0
 24 57  1  0
 25 58  1  0
 25 60  1  0
 59 26  1  0
 26 64  1  0
 63 27  1  0
 27 71  1  0
 28 67  1  0
 28 68  1  0
 70 29  1  0
 29 79  1  0
 75 30  1  0
 30 85  1  0
 77 31  1  0
 31 87  1  0
 32 73  1  0
 32 96  1  0
 78 33  1  0
 33 93  1  0
 34 89  1  0
 34107  1  0
 92 35  1  0
 35104  1  0
 36 98  1  0
 36107  2  0
100 37  1  0
 37109  1  0
 38 96  1  0
 39 96  2  3
110 40  1  0
 40117  1  0
 41 42  1  0
 41 46  1  6
 42 43  1  0
 43 44  1  0
 45 47  1  0
 47 48  1  6
 48 50  1  0
 49 51  1  0
 49 53  1  0
 50 52  1  0
 51 54  1  0
 51 55  1  0
 52 57  1  0
 56 58  1  0
 59 60  1  0
 59 61  1  6
 61 62  1  0
 62 66  1  0
 62 67  2  0
 63 64  1  0
 63 65  1  6
 65 69  1  0
 66 68  2  0
 66 72  1  0
 68 76  1  0
 69 73  1  0
 70 71  1  0
 70 74  1  6
 72 80  2  0
 74 86  1  0
 75 79  1  0
 75 82  1  6
 76 83  2  0
 77 84  1  1
 77 85  1  0
 78 81  1  6
 78 87  1  0
 80 83  1  0
 81 88  1  0
 82 89  1  0
 84 90  1  0
 86 94  2  0
 86 95  1  0
 88 91  1  0
 89 98  2  0
 90103  1  0
 91 97  1  0
 92 93  1  0
 92 99  1  1
 94101  1  0
 95102  2  0
100104  1  0
100105  1  6
101106  2  0
102106  1  0
105108  1  0
108111  2  0
108112  1  0
109110  1  0
110113  1  6
111114  1  0
112115  2  0
114116  2  0
115116  1  0
117118  1  0
M  END
$$$$
