
     RDKit          2D

 22 25  0  0  1  0  0  0  0  0999 V2000
    4.3037   -2.5383    0.0000 O   0  0  0  0  0  0  0  0  0  0  0  0
    3.0304    1.7152    0.0000 O   0  0  0  0  0  0  0  0  0  0  0  0
    3.0304    0.0651    0.0000 N   0  0  0  0  0  0  0  0  0  0  0  0
    4.4594    1.7152    0.0000 N   0  0  0  0  0  0  0  0  0  0  0  0
    5.5563   -0.2344    0.0000 N   0  0  0  0  0  0  0  0  0  0  0  0
    3.0304   -0.7600    0.0000 C   0  0  0  0  0  0  0  0  0  0  0  0
    3.7204   -1.9549    0.0000 C   0  0  0  0  0  0  0  0  0  0  0  0
    2.3405   -1.9549    0.0000 C   0  0  0  0  0  0  0  0  0  0  0  0
    2.4602   -2.3138    0.0000 C   0  0  0  0  0  0  0  0  0  0  0  0
    3.7204   -1.1583    0.0000 C   0  0  0  0  0  0  0  0  0  0  0  0
    2.3405   -1.1583    0.0000 C   0  0  0  0  0  0  0  0  0  0  0  0
    2.4602   -1.4515    0.0000 C   0  0  0  0  0  0  0  0  0  0  0  0
    3.0304   -2.2047    0.0000 C   0  0  0  0  0  0  0  0  0  0  0  0
    3.2074   -2.7073    0.0000 C   0  0  0  0  0  0  0  0  0  0  0  0
    1.6501   -2.3533    0.0000 C   0  0  0  0  0  0  0  0  0  0  0  0
    3.7449    0.4777    0.0000 C   0  0  0  0  0  0  0  0  0  0  0  0
    3.7449    1.3027    0.0000 C   0  0  0  0  0  0  0  0  0  0  0  0
    5.2132    1.3797    0.0000 C   0  0  0  0  0  0  0  0  0  0  0  0
    4.5458    2.5358    0.0000 C   0  0  0  0  0  0  0  0  0  0  0  0
    5.7652    1.9928    0.0000 C   0  0  0  0  0  0  0  0  0  0  0  0
    5.3527    2.7073    0.0000 C   0  0  0  0  0  0  0  0  0  0  0  0
    5.3848    0.5725    0.0000 C   0  0  0  0  0  0  0  0  0  0  0  0
  1  7  1  0
  2 17  2  0
  3  6  1  0
  3 16  1  0
  4 17  1  0
  4 18  1  0
  4 19  1  0
  5 22  3  0
  6 10  1  0
  6 11  1  0
  6 12  1  0
  7 10  1  0
  7 13  1  0
  7 14  1  0
  8 11  1  0
  8 13  1  0
  8 15  1  0
  9 12  1  0
  9 14  1  0
  9 15  1  0
 16 17  1  0
 18 20  1  0
 18 22  1  1
 19 21  1  0
 20 21  1  0
M  END
$$$$
