
     RDKit          2D

 36 40  0  0  0  0  0  0  0  0999 V2000
    0.3001    0.5690    0.0000 N   0  0  0  0  0  0  0  0  0  0  0  0
    1.1253    0.5690    0.0000 C   0  0  0  0  0  0  0  0  0  0  0  0
    1.1253   -0.2563    0.0000 C   0  0  0  0  0  0  0  0  0  0  0  0
    0.3001   -0.2563    0.0000 C   0  0  0  0  0  0  0  0  0  0  0  0
    3.8887   -0.9941    0.0000 C   0  0  0  0  0  0  0  0  0  0  0  0
    4.5264   -1.5066    0.0000 N   0  0  0  0  0  0  0  0  0  0  0  0
   -0.4126    0.9816    0.0000 C   0  0  0  0  0  0  0  0  0  0  0  0
   -1.1253    0.5648    0.0000 C   0  0  0  0  0  0  0  0  0  0  0  0
   -3.3133    0.8939    0.0000 C   0  0  0  0  0  0  0  0  0  0  0  0
    3.0926   -1.2065    0.0000 C   0  0  0  0  0  0  0  0  0  0  0  0
   -3.8636    0.2813    0.0000 N   0  0  0  0  0  0  0  0  0  0  0  0
    1.7130   -0.8356    0.0000 N   0  0  0  0  0  0  0  0  0  0  0  0
    4.1762   -0.2188    0.0000 N   0  0  0  0  0  0  0  0  0  0  0  0
    2.5049   -0.6189    0.0000 C   0  0  0  0  0  0  0  0  0  0  0  0
   -2.5631    0.5648    0.0000 C   0  0  0  0  0  0  0  0  0  0  0  0
   -0.4126   -0.6689    0.0000 S   0  0  0  0  0  0  0  0  0  0  0  0
    5.2140   -1.0565    0.0000 C   0  0  0  0  0  0  0  0  0  0  0  0
   -1.8505    0.9774    0.0000 C   0  0  0  0  0  0  0  0  0  0  0  0
    5.0014   -0.2605    0.0000 S   0  0  0  0  0  0  0  0  0  0  0  0
   -0.4208    1.8068    0.0000 C   0  0  0  0  0  0  0  0  0  0  0  0
   -1.1336   -0.2605    0.0000 C   0  0  0  0  0  0  0  0  0  0  0  0
   -3.4510   -0.4313    0.0000 C   0  0  0  0  0  0  0  0  0  0  0  0
    2.8801   -1.9985    0.0000 N   0  0  0  0  0  0  0  0  0  0  0  0
    1.7047    1.1565    0.0000 O   0  0  0  0  0  0  0  0  0  0  0  0
   -2.6465   -0.2563    0.0000 C   0  0  0  0  0  0  0  0  0  0  0  0
   -3.4885    1.7026    0.0000 O   0  0  0  0  0  0  0  0  0  0  0  0
   -4.6888    0.3688    0.0000 C   0  0  0  0  0  0  0  0  0  0  0  0
    2.7175    0.1771    0.0000 O   0  0  0  0  0  0  0  0  0  0  0  0
   -5.9016    0.9065    0.0000 N   0  0  0  0  0  0  0  0  0  0  0  0
    0.2918    2.2194    0.0000 O   0  0  0  0  0  0  0  0  0  0  0  0
    5.9893   -1.3567    0.0000 N   0  0  0  0  0  0  0  0  0  0  0  0
   -1.1378    2.2194    0.0000 O   0  0  0  0  0  0  0  0  0  0  0  0
    2.0881   -2.2194    0.0000 O   0  0  0  0  0  0  0  0  0  0  0  0
   -5.2348   -0.2438    0.0000 C   0  0  0  0  0  0  0  0  0  0  0  0
   -5.1014    1.0815    0.0000 C   0  0  0  0  0  0  0  0  0  0  0  0
   -5.9893    0.0895    0.0000 C   0  0  0  0  0  0  0  0  0  0  0  0
  2  1  1  0
  3  4  1  0
  4  1  1  0
  5 10  1  0
  6  5  1  0
  7  1  1  0
  8  7  2  0
  9 15  1  0
 10 14  1  0
 11  9  1  0
  3 12  1  1
 13  5  2  0
 14 12  1  0
 15 18  2  0
  4 16  1  1
 17  6  2  0
 18  8  1  0
 19 13  1  0
 20  7  1  0
 21  8  1  0
 22 25  1  0
 23 10  2  0
 24  2  2  0
 25 15  1  0
 26  9  2  0
 27 11  1  6
 28 14  2  0
 29 35  1  0
 30 20  2  0
 31 17  1  0
 32 20  1  0
 33 23  1  0
 34 27  1  0
 35 27  1  0
 36 34  1  0
  3  2  1  0
 16 21  1  0
 22 11  1  0
 17 19  1  0
 29 36  1  0
M  END
$$$$
