
     RDKit          2D

 31 34  0  0  0  0  0  0  0  0999 V2000
    1.6500   -4.7505    0.0000 F   0  0  0  0  0  0  0  0  0  0  0  0
    4.5741   -4.5894    0.0000 O   0  0  0  0  0  0  0  0  0  0  0  0
    7.4701    0.9997    0.0000 O   0  0  0  0  0  0  0  0  0  0  0  0
    9.0847    1.3399    0.0000 O   0  0  0  0  0  0  0  0  0  0  0  0
    9.3026    4.3065    0.0000 O   0  0  0  0  0  0  0  0  0  0  0  0
    5.3430   -0.9090    0.0000 N   0  0  0  0  0  0  0  0  0  0  0  0
    5.0556   -3.9255    0.0000 N   0  0  0  0  0  0  0  0  0  0  0  0
    4.8304   -2.4773    0.0000 C   0  0  0  0  0  0  0  0  0  0  0  0
    5.6377   -2.3072    0.0000 C   0  0  0  0  0  0  0  0  0  0  0  0
    4.2794   -1.8633    0.0000 C   0  0  0  0  0  0  0  0  0  0  0  0
    5.8939   -1.5230    0.0000 C   0  0  0  0  0  0  0  0  0  0  0  0
    4.5357   -1.0791    0.0000 C   0  0  0  0  0  0  0  0  0  0  0  0
    5.5992   -0.1248    0.0000 C   0  0  0  0  0  0  0  0  0  0  0  0
    4.5741   -3.2615    0.0000 C   0  0  0  0  0  0  0  0  0  0  0  0
    6.4066    0.0454    0.0000 C   0  0  0  0  0  0  0  0  0  0  0  0
    3.7935   -3.5130    0.0000 C   0  0  0  0  0  0  0  0  0  0  0  0
    3.7935   -4.3380    0.0000 C   0  0  0  0  0  0  0  0  0  0  0  0
    6.6628    0.8295    0.0000 C   0  0  0  0  0  0  0  0  0  0  0  0
    3.0790   -3.1005    0.0000 C   0  0  0  0  0  0  0  0  0  0  0  0
    3.0790   -4.7505    0.0000 C   0  0  0  0  0  0  0  0  0  0  0  0
    2.3645   -3.5130    0.0000 C   0  0  0  0  0  0  0  0  0  0  0  0
    2.3645   -4.3380    0.0000 C   0  0  0  0  0  0  0  0  0  0  0  0
    7.7264    1.7838    0.0000 C   0  0  0  0  0  0  0  0  0  0  0  0
    8.5337    1.9539    0.0000 C   0  0  0  0  0  0  0  0  0  0  0  0
    7.1754    2.3979    0.0000 C   0  0  0  0  0  0  0  0  0  0  0  0
    8.7900    2.7382    0.0000 C   0  0  0  0  0  0  0  0  0  0  0  0
    7.4318    3.1821    0.0000 C   0  0  0  0  0  0  0  0  0  0  0  0
    8.2390    3.3523    0.0000 C   0  0  0  0  0  0  0  0  0  0  0  0
    8.4954    4.1364    0.0000 C   0  0  0  0  0  0  0  0  0  0  0  0
    9.8919    1.5101    0.0000 C   0  0  0  0  0  0  0  0  0  0  0  0
    7.9443    4.7505    0.0000 C   0  0  0  0  0  0  0  0  0  0  0  0
  1 22  1  0
  2  7  1  0
  2 17  1  0
  3 18  1  0
  3 23  1  0
  4 24  1  0
  4 30  1  0
  5 29  2  0
  6 11  1  0
  6 12  1  0
  6 13  1  0
  7 14  2  0
  8  9  1  0
  8 10  1  0
  8 14  1  0
  9 11  1  0
 10 12  1  0
 13 15  1  0
 14 16  1  0
 15 18  1  0
 16 17  2  0
 16 19  1  0
 17 20  1  0
 19 21  2  0
 20 22  2  0
 21 22  1  0
 23 24  2  0
 23 25  1  0
 24 26  1  0
 25 27  2  0
 26 28  2  0
 27 28  1  0
 28 29  1  0
 29 31  1  0
M  END
$$$$
