
     RDKit          2D

 52 60  0  0  1  0  0  0  0  0999 V2000
    9.0528    0.3907    0.0000 O   0  0  0  0  0  0  0  0  0  0  0  0
    7.6240    0.9931    0.0000 O   0  0  0  0  0  0  0  0  0  0  0  0
    4.4478    0.5035    0.0000 O   0  0  0  0  0  0  0  0  0  0  0  0
    2.2480   -2.4864    0.0000 O   0  0  0  0  0  0  0  0  0  0  0  0
    2.8056   -3.5114    0.0000 O   0  0  0  0  0  0  0  0  0  0  0  0
    8.3008    3.2056    0.0000 N   0  0  0  0  0  0  0  0  0  0  0  0
    7.7761    0.5858    0.0000 N   0  0  0  0  0  0  0  0  0  0  0  0
    3.3110   -2.9732    0.0000 N   0  0  0  0  0  0  0  0  0  0  0  0
    6.5432   -1.5194    0.0000 N   0  0  0  0  0  0  0  0  0  0  0  0
    8.8152    2.5605    0.0000 C   0  0  0  0  0  0  0  0  0  0  0  0
    8.6315    1.7562    0.0000 C   0  0  0  0  0  0  0  0  0  0  0  0
   10.0755    1.4090    0.0000 C   0  0  0  0  0  0  0  0  0  0  0  0
    9.6323    2.8265    0.0000 C   0  0  0  0  0  0  0  0  0  0  0  0
    9.2524    1.1620    0.0000 C   0  0  0  0  0  0  0  0  0  0  0  0
   10.2668    2.2468    0.0000 C   0  0  0  0  0  0  0  0  0  0  0  0
    9.7067    2.8196    0.0000 C   0  0  0  0  0  0  0  0  0  0  0  0
    7.8883    1.3982    0.0000 C   0  0  0  0  0  0  0  0  0  0  0  0
    7.4758    3.2056    0.0000 C   0  0  0  0  0  0  0  0  0  0  0  0
    9.8066    3.6328    0.0000 C   0  0  0  0  0  0  0  0  0  0  0  0
    7.1449    1.7562    0.0000 C   0  0  0  0  0  0  0  0  0  0  0  0
    8.4480    0.9519    0.0000 C   0  0  0  0  0  0  0  0  0  0  0  0
    6.9614    2.5605    0.0000 C   0  0  0  0  0  0  0  0  0  0  0  0
    6.5797    1.1619    0.0000 C   0  0  0  0  0  0  0  0  0  0  0  0
    6.9690    0.4401    0.0000 C   0  0  0  0  0  0  0  0  0  0  0  0
   10.5921    3.8851    0.0000 C   0  0  0  0  0  0  0  0  0  0  0  0
    5.7264    1.2000    0.0000 C   0  0  0  0  0  0  0  0  0  0  0  0
    6.5318   -0.2938    0.0000 C   0  0  0  0  0  0  0  0  0  0  0  0
    5.6778   -0.2756    0.0000 C   0  0  0  0  0  0  0  0  0  0  0  0
    5.2474   -0.9794    0.0000 C   0  0  0  0  0  0  0  0  0  0  0  0
    3.7654   -1.3368    0.0000 C   0  0  0  0  0  0  0  0  0  0  0  0
    5.2723    0.4764    0.0000 C   0  0  0  0  0  0  0  0  0  0  0  0
    4.4324   -0.8512    0.0000 C   0  0  0  0  0  0  0  0  0  0  0  0
    3.6372   -2.1518    0.0000 C   0  0  0  0  0  0  0  0  0  0  0  0
    4.1228   -2.8187    0.0000 C   0  0  0  0  0  0  0  0  0  0  0  0
    8.8692   -0.4136    0.0000 C   0  0  0  0  0  0  0  0  0  0  0  0
    5.7330   -1.6464    0.0000 C   0  0  0  0  0  0  0  0  0  0  0  0
    4.9377   -2.9470    0.0000 C   0  0  0  0  0  0  0  0  0  0  0  0
    2.9725   -1.5692    0.0000 C   0  0  0  0  0  0  0  0  0  0  0  0
    5.6047   -2.4614    0.0000 C   0  0  0  0  0  0  0  0  0  0  0  0
    2.7514   -2.3653    0.0000 C   0  0  0  0  0  0  0  0  0  0  0  0
    6.3368   -2.8311    0.0000 C   0  0  0  0  0  0  0  0  0  0  0  0
    3.0392   -2.7201    0.0000 C   0  0  0  0  0  0  0  0  0  0  0  0
    6.9156   -2.2501    0.0000 C   0  0  0  0  0  0  0  0  0  0  0  0
    3.4785   -3.7811    0.0000 C   0  0  0  0  0  0  0  0  0  0  0  0
    2.3850   -0.9899    0.0000 C   0  0  0  0  0  0  0  0  0  0  0  0
    6.5467   -3.6591    0.0000 C   0  0  0  0  0  0  0  0  0  0  0  0
    4.0589    1.2312    0.0000 C   0  0  0  0  0  0  0  0  0  0  0  0
    7.7445   -2.4569    0.0000 C   0  0  0  0  0  0  0  0  0  0  0  0
    2.5928   -0.1915    0.0000 C   0  0  0  0  0  0  0  0  0  0  0  0
    7.3705   -3.8851    0.0000 C   0  0  0  0  0  0  0  0  0  0  0  0
    7.9734   -3.2800    0.0000 C   0  0  0  0  0  0  0  0  0  0  0  0
    1.6500   -3.0548    0.0000 C   0  0  0  0  0  0  0  0  0  0  0  0
  1 21  1  0
  1 35  1  0
  2 21  2  0
  3 31  1  0
  3 47  1  0
  4 42  1  0
  4 52  1  0
  5 42  2  0
 10  6  1  1
  6 16  1  0
  6 18  1  0
  7 17  1  0
  7 24  1  0
  8 34  1  0
  8 40  1  0
  8 44  1  0
  9 36  1  0
  9 43  1  0
 10 11  1  0
 10 13  1  0
 11 14  1  0
 11 17  1  0
 11 21  1  6
 12 14  1  1
 12 15  1  0
 12 16  1  0
 13 15  1  0
 13 19  1  1
 17 20  2  0
 18 22  1  0
 19 25  1  0
 20 22  1  0
 20 23  1  0
 23 24  2  0
 23 26  1  0
 24 27  1  0
 26 31  2  0
 27 28  2  0
 29 28  1  6
 28 31  1  0
 29 32  1  0
 29 36  1  0
 30 32  1  6
 30 33  1  0
 30 38  1  0
 33 34  1  0
 33 42  1  0
 34 37  1  1
 36 39  2  0
 37 39  1  0
 38 40  1  0
 38 45  2  0
 39 41  1  0
 41 43  2  0
 41 46  1  0
 43 48  1  0
 45 49  1  0
 46 50  2  0
 48 51  2  0
 50 51  1  0
M  END
$$$$
