
     RDKit          2D

 35 37  0  0  0  0  0  0  0  0999 V2000
    0.3706    1.8638    0.0000 O   0  0  0  0  0  0  0  0  0  0  0  0
    1.0871    1.4431    0.0000 C   0  0  0  0  0  0  0  0  0  0  0  0
    0.3706    1.0308    0.0000 C   0  0  0  0  0  0  0  0  0  0  0  0
    3.2195   -1.4474    0.0000 C   0  0  0  0  0  0  0  0  0  0  0  0
    2.5115   -1.0350    0.0000 C   0  0  0  0  0  0  0  0  0  0  0  0
    3.9317   -1.0433    0.0000 C   0  0  0  0  0  0  0  0  0  0  0  0
   -3.2654   -0.1104    0.0000 N   0  0  0  0  0  0  0  0  0  0  0  0
   -0.3623   -1.0308    0.0000 N   0  0  0  0  0  0  0  0  0  0  0  0
    0.3748   -1.4349    0.0000 C   0  0  0  0  0  0  0  0  0  0  0  0
   -0.3498   -0.1978    0.0000 C   0  0  0  0  0  0  0  0  0  0  0  0
   -2.5032    0.2269    0.0000 C   0  0  0  0  0  0  0  0  0  0  0  0
    1.7992   -1.4431    0.0000 C   0  0  0  0  0  0  0  0  0  0  0  0
    0.3623    0.2061    0.0000 C   0  0  0  0  0  0  0  0  0  0  0  0
    1.0871   -1.0225    0.0000 C   0  0  0  0  0  0  0  0  0  0  0  0
   -1.7867   -0.1978    0.0000 C   0  0  0  0  0  0  0  0  0  0  0  0
   -1.0662    0.2144    0.0000 C   0  0  0  0  0  0  0  0  0  0  0  0
    3.9359   -0.2228    0.0000 C   0  0  0  0  0  0  0  0  0  0  0  0
   -3.8235    0.5143    0.0000 C   0  0  0  0  0  0  0  0  0  0  0  0
   -3.3986    1.2265    0.0000 S   0  0  0  0  0  0  0  0  0  0  0  0
   -2.5865    1.0516    0.0000 C   0  0  0  0  0  0  0  0  0  0  0  0
    3.2112   -2.2678    0.0000 O   0  0  0  0  0  0  0  0  0  0  0  0
    0.3706   -2.2553    0.0000 O   0  0  0  0  0  0  0  0  0  0  0  0
    3.2237    0.1936    0.0000 C   0  0  0  0  0  0  0  0  0  0  0  0
    1.7992    1.0266    0.0000 C   0  0  0  0  0  0  0  0  0  0  0  0
    4.6481    0.1894    0.0000 O   0  0  0  0  0  0  0  0  0  0  0  0
    1.7951   -2.2595    0.0000 O   0  0  0  0  0  0  0  0  0  0  0  0
    1.0953    2.2678    0.0000 C   0  0  0  0  0  0  0  0  0  0  0  0
    3.0820   -0.4602    0.0000 C   0  0  0  0  0  0  0  0  0  0  0  0
    1.9325   -0.4560    0.0000 C   0  0  0  0  0  0  0  0  0  0  0  0
    4.6356   -1.4556    0.0000 C   0  0  0  0  0  0  0  0  0  0  0  0
   -1.0620    1.0433    0.0000 C   0  0  0  0  0  0  0  0  0  0  0  0
   -4.6481    0.4269    0.0000 C   0  0  0  0  0  0  0  0  0  0  0  0
    2.5197    1.4389    0.0000 C   0  0  0  0  0  0  0  0  0  0  0  0
    3.2320    1.0183    0.0000 C   0  0  0  0  0  0  0  0  0  0  0  0
    2.5115   -0.2104    0.0000 C   0  0  0  0  0  0  0  0  0  0  0  0
  2  1  1  0
  3  1  1  0
  4  6  1  0
  5 12  1  0
  6 17  1  0
  7 11  1  0
  8 10  1  0
  9  8  1  0
 10 13  1  0
 11 15  1  0
 12 14  1  0
  3 13  1  6
 14  9  1  0
 15 16  2  0
 10 16  1  6
 17 23  1  0
 18  7  2  0
 19 20  1  0
 20 11  2  0
 21  4  2  0
 22  9  2  0
 23 34  1  0
 24  2  1  0
 17 25  1  6
 12 26  1  1
  2 27  1  1
 28  5  1  0
 29  5  1  0
  6 30  1  1
 31 16  1  0
 32 18  1  0
 33 24  1  0
 34 33  1  0
 23 35  1  1
  2  3  1  0
 18 19  1  0
  5  4  1  0
M  END
$$$$
