
     RDKit          2D

 22 23  0  0  0  0  0  0  0  0999 V2000
    3.1261    1.6146    0.0000 S   0  0  0  0  0  0  0  0  0  0  0  0
    3.7935   -2.1704    0.0000 O   0  0  0  0  0  0  0  0  0  0  0  0
    2.0756    2.9805    0.0000 O   0  0  0  0  0  0  0  0  0  0  0  0
    3.2316    3.8204    0.0000 O   0  0  0  0  0  0  0  0  0  0  0  0
    4.4610    1.6146    0.0000 N   0  0  0  0  0  0  0  0  0  0  0  0
    1.6500   -1.7579    0.0000 N   0  0  0  0  0  0  0  0  0  0  0  0
    4.5080   -3.4079    0.0000 C   0  0  0  0  0  0  0  0  0  0  0  0
    4.5080   -2.5829    0.0000 C   0  0  0  0  0  0  0  0  0  0  0  0
    5.2224   -3.8204    0.0000 C   0  0  0  0  0  0  0  0  0  0  0  0
    3.7935   -3.8204    0.0000 C   0  0  0  0  0  0  0  0  0  0  0  0
    3.7935   -1.3454    0.0000 C   0  0  0  0  0  0  0  0  0  0  0  0
    3.7935    0.3047    0.0000 C   0  0  0  0  0  0  0  0  0  0  0  0
    3.0791   -0.9328    0.0000 C   0  0  0  0  0  0  0  0  0  0  0  0
    4.5080   -0.9328    0.0000 C   0  0  0  0  0  0  0  0  0  0  0  0
    3.0791   -0.1078    0.0000 C   0  0  0  0  0  0  0  0  0  0  0  0
    4.5080   -0.1078    0.0000 C   0  0  0  0  0  0  0  0  0  0  0  0
    3.7935    1.1297    0.0000 C   0  0  0  0  0  0  0  0  0  0  0  0
    4.2060    2.3992    0.0000 C   0  0  0  0  0  0  0  0  0  0  0  0
    3.3810    2.3992    0.0000 C   0  0  0  0  0  0  0  0  0  0  0  0
    4.6910    3.0668    0.0000 C   0  0  0  0  0  0  0  0  0  0  0  0
    2.3645   -1.3454    0.0000 C   0  0  0  0  0  0  0  0  0  0  0  0
    2.8961    3.0668    0.0000 C   0  0  0  0  0  0  0  0  0  0  0  0
  1 17  1  0
  1 19  1  0
  2  8  1  0
  2 11  1  0
  3 22  1  0
  4 22  2  0
  5 17  2  0
  5 18  1  0
  6 21  3  0
  7  8  1  0
  7  9  1  0
  7 10  1  0
 11 13  2  0
 11 14  1  0
 12 15  2  0
 12 16  1  0
 12 17  1  0
 13 15  1  0
 13 21  1  0
 14 16  2  0
 18 19  2  0
 18 20  1  0
 19 22  1  0
M  END
$$$$
