
     RDKit          2D

 23 25  0  0  1  0  0  0  0  0999 V2000
    5.2863    2.3071    0.0000 O   0  0  0  0  0  0  0  0  0  0  0  0
    1.6499    0.2076    0.0000 O   0  0  0  0  0  0  0  0  0  0  0  0
    1.6499   -1.4822    0.0000 O   0  0  0  0  0  0  0  0  0  0  0  0
    5.2764   -0.2249    0.0000 N   0  0  0  0  0  0  0  0  0  0  0  0
    4.5619    0.1876    0.0000 C   0  0  0  0  0  0  0  0  0  0  0  0
    6.0337    1.0525    0.0000 C   0  0  0  0  0  0  0  0  0  0  0  0
    6.0271    0.1933    0.0000 C   0  0  0  0  0  0  0  0  0  0  0  0
    4.5487    1.0468    0.0000 C   0  0  0  0  0  0  0  0  0  0  0  0
    5.2764   -1.0498    0.0000 C   0  0  0  0  0  0  0  0  0  0  0  0
    3.8476   -0.2249    0.0000 C   0  0  0  0  0  0  0  0  0  0  0  0
    5.2895    1.4822    0.0000 C   0  0  0  0  0  0  0  0  0  0  0  0
    6.7497    1.4622    0.0000 C   0  0  0  0  0  0  0  0  0  0  0  0
    4.5619   -1.4623    0.0000 C   0  0  0  0  0  0  0  0  0  0  0  0
    3.8476   -1.0498    0.0000 C   0  0  0  0  0  0  0  0  0  0  0  0
    7.4625    1.0470    0.0000 C   0  0  0  0  0  0  0  0  0  0  0  0
    3.1101    0.2162    0.0000 C   0  0  0  0  0  0  0  0  0  0  0  0
    3.1101   -1.4908    0.0000 C   0  0  0  0  0  0  0  0  0  0  0  0
    7.4593    0.2221    0.0000 C   0  0  0  0  0  0  0  0  0  0  0  0
    8.1785    1.4568    0.0000 C   0  0  0  0  0  0  0  0  0  0  0  0
    2.3627   -0.2077    0.0000 C   0  0  0  0  0  0  0  0  0  0  0  0
    2.3627   -1.0669    0.0000 C   0  0  0  0  0  0  0  0  0  0  0  0
    1.6531    1.0325    0.0000 C   0  0  0  0  0  0  0  0  0  0  0  0
    1.6531   -2.3071    0.0000 C   0  0  0  0  0  0  0  0  0  0  0  0
  1 11  2  0
  2 20  1  0
  2 22  1  0
  3 21  1  0
  3 23  1  0
  4  5  1  0
  4  7  1  0
  4  9  1  0
  5  8  1  0
  5 10  1  0
  6  7  1  0
  6 11  1  0
  6 12  1  0
  8 11  1  0
  9 13  1  0
 10 14  2  0
 10 16  1  0
 12 15  1  0
 13 14  1  0
 14 17  1  0
 15 18  1  0
 15 19  1  0
 16 20  2  0
 17 21  2  0
 20 21  1  0
M  END
$$$$
