
     RDKit          2D

 28 31  0  0  0  0  0  0  0  0999 V2000
   -2.8732   -0.3288    0.0000 C   0  0  0  0  0  0  0  0  0  0  0  0
   -3.5958   -0.7256    0.0000 C   0  0  0  0  0  0  0  0  0  0  0  0
   -3.5958   -1.5647    0.0000 C   0  0  0  0  0  0  0  0  0  0  0  0
   -2.8732   -1.9768    0.0000 C   0  0  0  0  0  0  0  0  0  0  0  0
   -2.1736   -1.5647    0.0000 C   0  0  0  0  0  0  0  0  0  0  0  0
   -1.4586   -1.9768    0.0000 C   0  0  0  0  0  0  0  0  0  0  0  0
   -2.1736   -0.7256    0.0000 C   0  0  0  0  0  0  0  0  0  0  0  0
   -1.4586    0.4792    0.0000 C   0  0  0  0  0  0  0  0  0  0  0  0
   -0.7278    0.8993    0.0000 C   0  0  0  0  0  0  0  0  0  0  0  0
   -0.0280    0.4792    0.0000 C   0  0  0  0  0  0  0  0  0  0  0  0
   -0.0280   -0.3288    0.0000 C   0  0  0  0  0  0  0  0  0  0  0  0
    0.7565   -0.5856    0.0000 C   0  0  0  0  0  0  0  0  0  0  0  0
    1.2229    0.0674    0.0000 C   0  0  0  0  0  0  0  0  0  0  0  0
    0.7565    0.7356    0.0000 C   0  0  0  0  0  0  0  0  0  0  0  0
   -0.0280    1.3267    0.0000 C   0  0  0  0  0  0  0  0  0  0  0  0
   -2.1736    0.0830    0.0000 C   0  0  0  0  0  0  0  0  0  0  0  0
   -4.3291   -1.9955    0.0000 O   0  0  0  0  0  0  0  0  0  0  0  0
   -1.4586   -0.3288    0.0000 C   0  0  0  0  0  0  0  0  0  0  0  0
    0.0422    1.9955    0.0000 C   0  0  0  0  0  0  0  0  0  0  0  0
   -0.7278   -0.7256    0.0000 C   0  0  0  0  0  0  0  0  0  0  0  0
   -0.7278   -1.5647    0.0000 C   0  0  0  0  0  0  0  0  0  0  0  0
    2.1855    1.5831    0.0000 C   0  0  0  0  0  0  0  0  0  0  0  0
    2.9000    1.9955    0.0000 C   0  0  0  0  0  0  0  0  0  0  0  0
    3.6145    1.5831    0.0000 C   0  0  0  0  0  0  0  0  0  0  0  0
    3.6145    0.7581    0.0000 C   0  0  0  0  0  0  0  0  0  0  0  0
    1.4711    1.9955    0.0000 C   0  0  0  0  0  0  0  0  0  0  0  0
    0.7565    1.5831    0.0000 C   0  0  0  0  0  0  0  0  0  0  0  0
    4.3291    1.9955    0.0000 C   0  0  0  0  0  0  0  0  0  0  0  0
 11 10  1  0
 14 10  1  0
  9 10  1  0
 10 15  1  1
 20 11  1  0
 11 12  1  1
 18  8  1  1
  7 18  1  0
 20 18  1  0
 20 21  1  6
  5  7  1  0
  7 16  1  1
  1  7  1  0
 14 13  1  1
 27 14  1  0
  8  9  1  0
 13 12  1  0
  6 21  1  0
  4  5  1  0
  6  5  2  0
  2  1  1  0
  3  4  1  0
  3  2  1  0
  3 17  1  1
 27 19  1  6
 26 22  1  0
 23 22  1  0
 24 23  1  0
 25 24  1  0
 28 24  1  0
 26 27  1  0
M  END
$$$$
