
     RDKit          2D

 30 31  0  0  0  0  0  0  0  0999 V2000
    6.0696    1.0607    0.0000 C   0  0  0  0  0  0  0  0  0  0  0  0
    5.3552    0.6482    0.0000 C   0  0  0  0  0  0  0  0  0  0  0  0
    5.3552   -0.1768    0.0000 C   0  0  0  0  0  0  0  0  0  0  0  0
    6.0696   -0.5893    0.0000 C   0  0  0  0  0  0  0  0  0  0  0  0
    6.7841   -0.1768    0.0000 C   0  0  0  0  0  0  0  0  0  0  0  0
    6.7841    0.6482    0.0000 C   0  0  0  0  0  0  0  0  0  0  0  0
    7.5810    0.8617    0.0000 Cl  0  0  0  0  0  0  0  0  0  0  0  0
    7.5810   -0.3903    0.0000 Cl  0  0  0  0  0  0  0  0  0  0  0  0
    6.0696   -1.4143    0.0000 C   0  0  0  0  0  0  0  0  0  0  0  0
    5.3552   -1.8268    0.0000 C   0  0  0  0  0  0  0  0  0  0  0  0
    4.6407   -1.4143    0.0000 C   0  0  0  0  0  0  0  0  0  0  0  0
    3.9262   -1.8268    0.0000 O   0  0  0  0  0  0  0  0  0  0  0  0
    3.2118   -1.4143    0.0000 C   0  0  0  0  0  0  0  0  0  0  0  0
    4.6407   -0.5893    0.0000 O   0  0  0  0  0  0  0  0  0  0  0  0
    5.3552   -2.6518    0.0000 C   0  0  0  0  0  0  0  0  0  0  0  0
    6.0696   -3.0643    0.0000 N   0  0  0  0  0  0  0  0  0  0  0  0
    6.7841   -2.6518    0.0000 C   0  0  0  0  0  0  0  0  0  0  0  0
    6.7841   -1.8268    0.0000 C   0  0  0  0  0  0  0  0  0  0  0  0
    4.7718   -3.2352    0.0000 C   0  0  0  0  0  0  0  0  0  0  0  0
    7.3675   -3.2352    0.0000 C   0  0  0  0  0  0  0  0  0  0  0  0
    7.4986   -1.4143    0.0000 C   0  0  0  0  0  0  0  0  0  0  0  0
    8.2130   -1.8268    0.0000 O   0  0  0  0  0  0  0  0  0  0  0  0
    8.9275   -1.4143    0.0000 C   0  0  0  0  0  0  0  0  0  0  0  0
    9.6420   -1.8268    0.0000 O   0  0  0  0  0  0  0  0  0  0  0  0
   10.3565   -1.4143    0.0000 C   0  0  0  0  0  0  0  0  0  0  0  0
   11.0709   -1.8268    0.0000 C   0  0  0  0  0  0  0  0  0  0  0  0
   11.7854   -1.4143    0.0000 C   0  0  0  0  0  0  0  0  0  0  0  0
   12.4999   -1.8268    0.0000 C   0  0  0  0  0  0  0  0  0  0  0  0
   10.3565   -0.5893    0.0000 O   0  0  0  0  0  0  0  0  0  0  0  0
    7.5134   -0.9134    0.0000 O   0  0  0  0  0  0  0  0  0  0  0  0
  1  2  2  0
  2  3  1  0
  3  4  2  0
  4  5  1  0
  5  6  2  0
  1  6  1  0
  6  7  1  0
  5  8  1  0
  4  9  1  0
 10 11  1  0
 11 12  1  0
 12 13  1  0
 11 14  2  0
 10 15  2  0
  9 10  1  0
  9 18  1  0
 15 16  1  0
 16 17  1  0
 17 18  2  0
 15 19  1  0
 17 20  1  0
 18 21  1  0
 21 22  1  0
 22 23  1  0
 23 24  1  0
 24 25  1  0
 25 26  1  0
 26 27  1  0
 27 28  1  0
 25 29  2  0
 21 30  2  0
M  END
$$$$
