
     RDKit          2D

 30 33  0  0  0  0  0  0  0  0999 V2000
    5.7209   -2.8930    0.0000 C   0  0  0  0  0  0  0  0  0  0  0  0
    6.4372   -2.4744    0.0000 C   0  0  0  0  0  0  0  0  0  0  0  0
    5.7209   -3.7116    0.0000 C   0  0  0  0  0  0  0  0  0  0  0  0
    6.4372   -1.6465    0.0000 N   0  0  0  0  0  0  0  0  0  0  0  0
    5.0139   -2.4744    0.0000 C   0  0  0  0  0  0  0  0  0  0  0  0
    7.1535   -2.8930    0.0000 N   0  0  0  0  0  0  0  0  0  0  0  0
    5.0139   -4.1209    0.0000 C   0  0  0  0  0  0  0  0  0  0  0  0
    4.2976   -3.7116    0.0000 C   0  0  0  0  0  0  0  0  0  0  0  0
    7.1442   -1.2465    0.0000 C   0  0  0  0  0  0  0  0  0  0  0  0
    4.2976   -2.8930    0.0000 C   0  0  0  0  0  0  0  0  0  0  0  0
    7.8604   -1.6465    0.0000 C   0  0  0  0  0  0  0  0  0  0  0  0
    6.4372   -4.1209    0.0000 N   0  0  0  0  0  0  0  0  0  0  0  0
    0.7256   -4.9674    0.0000 N   0  0  0  0  0  0  0  0  0  0  0  0
    8.5767   -1.2465    0.0000 C   0  0  0  0  0  0  0  0  0  0  0  0
    7.1535   -3.7116    0.0000 C   0  0  0  0  0  0  0  0  0  0  0  0
    3.5814   -4.1302    0.0000 O   0  0  0  0  0  0  0  0  0  0  0  0
    7.1442   -0.4093    0.0000 C   0  0  0  0  0  0  0  0  0  0  0  0
    8.5767   -0.4093    0.0000 C   0  0  0  0  0  0  0  0  0  0  0  0
    0.7163   -4.1488    0.0000 C   0  0  0  0  0  0  0  0  0  0  0  0
    1.4418   -5.3767    0.0000 C   0  0  0  0  0  0  0  0  0  0  0  0
    7.8604   -2.4744    0.0000 F   0  0  0  0  0  0  0  0  0  0  0  0
    2.8651   -3.7116    0.0000 C   0  0  0  0  0  0  0  0  0  0  0  0
    7.8604    0.0000    0.0000 C   0  0  0  0  0  0  0  0  0  0  0  0
    3.5814   -2.4744    0.0000 O   0  0  0  0  0  0  0  0  0  0  0  0
    9.3023    0.0000    0.0000 Br  0  0  0  0  0  0  0  0  0  0  0  0
    2.1489   -4.1395    0.0000 C   0  0  0  0  0  0  0  0  0  0  0  0
    2.1581   -4.9674    0.0000 C   0  0  0  0  0  0  0  0  0  0  0  0
    1.4326   -3.7302    0.0000 C   0  0  0  0  0  0  0  0  0  0  0  0
    0.0000   -5.3953    0.0000 C   0  0  0  0  0  0  0  0  0  0  0  0
    2.8651   -2.8930    0.0000 C   0  0  0  0  0  0  0  0  0  0  0  0
  1  2  1  0
  1  3  1  0
  1  5  2  0
  2  4  1  0
  2  6  2  0
  3  7  2  0
  3 12  1  0
  4  9  1  0
  5 10  1  0
  6 15  1  0
  7  8  1  0
  8 10  2  0
  8 16  1  0
  9 11  2  0
  9 17  1  0
 10 24  1  0
 11 14  1  0
 11 21  1  0
 12 15  2  0
 13 19  1  0
 13 29  1  0
 13 20  1  0
 14 18  2  0
 16 22  1  0
 17 23  2  0
 18 23  1  0
 18 25  1  0
 19 28  1  0
 20 27  1  0
 22 26  1  0
 24 30  1  0
 26 27  1  0
 26 28  1  0
M  END
$$$$
