
     RDKit          2D

 22 24  0  0  0  0  0  0  0  0999 V2000
    2.9678    0.4969    0.0000 S   0  0  0  0  0  0  0  0  0  0  0  0
   -2.7593   -1.8523    0.0000 O   0  0  0  0  0  0  0  0  0  0  0  0
    0.0834    0.6151    0.0000 N   0  0  0  0  0  0  0  0  0  0  0  0
   -2.0435   -0.6151    0.0000 C   0  0  0  0  0  0  0  0  0  0  0  0
   -2.0435    0.2119    0.0000 C   0  0  0  0  0  0  0  0  0  0  0  0
   -0.6185    0.2119    0.0000 C   0  0  0  0  0  0  0  0  0  0  0  0
   -1.3345    0.6220    0.0000 C   0  0  0  0  0  0  0  0  0  0  0  0
   -2.7593   -1.0252    0.0000 C   0  0  0  0  0  0  0  0  0  0  0  0
   -1.3345   -1.0252    0.0000 C   0  0  0  0  0  0  0  0  0  0  0  0
   -0.6185   -0.6151    0.0000 C   0  0  0  0  0  0  0  0  0  0  0  0
   -2.7593    0.6220    0.0000 C   0  0  0  0  0  0  0  0  0  0  0  0
   -3.4752   -0.6151    0.0000 C   0  0  0  0  0  0  0  0  0  0  0  0
    0.7854    0.2119    0.0000 C   0  0  0  0  0  0  0  0  0  0  0  0
   -3.4752    0.2119    0.0000 C   0  0  0  0  0  0  0  0  0  0  0  0
    0.0903    1.4492    0.0000 C   0  0  0  0  0  0  0  0  0  0  0  0
    2.1894    0.2119    0.0000 C   0  0  0  0  0  0  0  0  0  0  0  0
    1.4874    0.6151    0.0000 C   0  0  0  0  0  0  0  0  0  0  0  0
    2.2172   -0.6151    0.0000 C   0  0  0  0  0  0  0  0  0  0  0  0
    0.7923    1.8523    0.0000 C   0  0  0  0  0  0  0  0  0  0  0  0
    3.4752   -0.1564    0.0000 C   0  0  0  0  0  0  0  0  0  0  0  0
    3.0165   -0.8374    0.0000 C   0  0  0  0  0  0  0  0  0  0  0  0
    1.4874    1.4492    0.0000 C   0  0  0  0  0  0  0  0  0  0  0  0
  1 16  1  0
  1 20  1  0
  2  8  1  0
  6  3  1  1
  3 13  1  0
  3 15  1  0
  4  5  2  0
  4  8  1  0
  4  9  1  0
  5  7  1  0
  5 11  1  0
  6  7  1  0
  6 10  1  0
  8 12  2  0
  9 10  1  0
 11 14  2  0
 12 14  1  0
 13 17  1  0
 15 19  1  0
 16 17  1  0
 16 18  2  0
 18 21  1  0
 19 22  1  0
 20 21  2  0
M  END
$$$$
