
     RDKit          2D

  3  2  0  0  0  0  0  0  0  0999 V2000
    3.7935    2.0625    0.0000 Cl  0  0  0  0  0  0  0  0  0  0  0  0
    4.5080    2.4751    0.0000 O   0  0  0  0  0  0  0  0  0  0  0  0
    3.0791    2.4751    0.0000 O   0  0  0  0  0  0  0  0  0  0  0  0
  1  2  1  0
  1  3  1  0
M  CHG  3   1   1   2  -1   3  -1
M  END
$$$$
