
     RDKit          2D

 31 33  0  0  0  0  0  0  0  0999 V2000
   -4.2869   -2.2687    0.0000 C   0  0  0  0  0  0  0  0  0  0  0  0
   -4.2869   -1.4437    0.0000 C   0  0  0  0  0  0  0  0  0  0  0  0
   -5.0013   -1.0312    0.0000 C   0  0  0  0  0  0  0  0  0  0  0  0
   -3.5724   -1.0312    0.0000 C   0  0  0  0  0  0  0  0  0  0  0  0
   -3.5724   -0.2062    0.0000 O   0  0  0  0  0  0  0  0  0  0  0  0
   -2.8579    0.2062    0.0000 C   0  0  0  0  0  0  0  0  0  0  0  0
   -2.8579    1.0312    0.0000 C   0  0  0  0  0  0  0  0  0  0  0  0
   -2.1435    1.4437    0.0000 C   0  0  0  0  0  0  0  0  0  0  0  0
   -1.4290    1.0312    0.0000 C   0  0  0  0  0  0  0  0  0  0  0  0
   -0.7145    1.4437    0.0000 C   0  0  0  0  0  0  0  0  0  0  0  0
    0.0000    1.0312    0.0000 N   0  0  0  0  0  0  0  0  0  0  0  0
    0.7144    1.4437    0.0000 C   0  0  0  0  0  0  0  0  0  0  0  0
    0.7144    2.2687    0.0000 O   0  0  0  0  0  0  0  0  0  0  0  0
    1.4288    1.0312    0.0000 N   0  0  0  0  0  0  0  0  0  0  0  0
    2.1433    1.4437    0.0000 C   0  0  0  0  0  0  0  0  0  0  0  0
    2.8577    1.0312    0.0000 C   0  0  0  0  0  0  0  0  0  0  0  0
    3.5723    1.4437    0.0000 C   0  0  0  0  0  0  0  0  0  0  0  0
    4.2867    1.0312    0.0000 C   0  0  0  0  0  0  0  0  0  0  0  0
    4.2867    0.2062    0.0000 C   0  0  0  0  0  0  0  0  0  0  0  0
    5.0013   -0.2062    0.0000 F   0  0  0  0  0  0  0  0  0  0  0  0
    3.5723   -0.2062    0.0000 C   0  0  0  0  0  0  0  0  0  0  0  0
    2.8577    0.2062    0.0000 C   0  0  0  0  0  0  0  0  0  0  0  0
    1.4288    0.2062    0.0000 C   0  0  0  0  0  0  0  0  0  0  0  0
    2.1433   -0.2062    0.0000 C   0  0  0  0  0  0  0  0  0  0  0  0
    2.1433   -1.0312    0.0000 C   0  0  0  0  0  0  0  0  0  0  0  0
    1.4288   -1.4437    0.0000 N   0  0  0  0  0  0  0  0  0  0  0  0
    1.4288   -2.2687    0.0000 C   0  0  0  0  0  0  0  0  0  0  0  0
    0.7144   -1.0312    0.0000 C   0  0  0  0  0  0  0  0  0  0  0  0
    0.7144   -0.2062    0.0000 C   0  0  0  0  0  0  0  0  0  0  0  0
   -1.4290    0.2062    0.0000 C   0  0  0  0  0  0  0  0  0  0  0  0
   -2.1435   -0.2062    0.0000 C   0  0  0  0  0  0  0  0  0  0  0  0
  1  2  1  0
  2  3  1  0
  2  4  1  0
  4  5  1  0
  5  6  1  0
  6  7  2  0
  7  8  1  0
  8  9  2  0
  9 10  1  0
 10 11  1  0
 11 12  1  0
 12 13  2  0
 12 14  1  0
 14 15  1  0
 15 16  1  0
 16 17  2  0
 17 18  1  0
 18 19  2  0
 19 20  1  0
 19 21  1  0
 21 22  2  0
 16 22  1  0
 14 23  1  0
 23 24  1  0
 24 25  1  0
 25 26  1  0
 26 27  1  0
 26 28  1  0
 28 29  1  0
 23 29  1  0
  9 30  1  0
 30 31  2  0
  6 31  1  0
M  END
$$$$
