
     RDKit          2D

 54 62  0  0  1  0  0  0  0  0999 V2000
   12.6124   -3.3240    0.0000 O   0  0  0  0  0  0  0  0  0  0  0  0
   12.7839   -0.0421    0.0000 O   0  0  0  0  0  0  0  0  0  0  0  0
   11.4563   -2.6566    0.0000 O   0  0  0  0  0  0  0  0  0  0  0  0
   12.0694    1.1954    0.0000 O   0  0  0  0  0  0  0  0  0  0  0  0
   13.4984   -1.2796    0.0000 C   0  0  0  0  0  0  0  0  0  0  0  0
   13.4984   -2.1046    0.0000 C   0  0  0  0  0  0  0  0  0  0  0  0
   12.7839   -2.5171    0.0000 C   0  0  0  0  0  0  0  0  0  0  0  0
   12.7839   -0.8671    0.0000 C   0  0  0  0  0  0  0  0  0  0  0  0
   12.0694   -2.1046    0.0000 C   0  0  0  0  0  0  0  0  0  0  0  0
   12.0694   -1.2796    0.0000 C   0  0  0  0  0  0  0  0  0  0  0  0
   11.7919   -3.4103    0.0000 C   0  0  0  0  0  0  0  0  0  0  0  0
   11.3550   -0.8671    0.0000 C   0  0  0  0  0  0  0  0  0  0  0  0
   12.0694    0.3704    0.0000 C   0  0  0  0  0  0  0  0  0  0  0  0
   11.3550   -0.0421    0.0000 C   0  0  0  0  0  0  0  0  0  0  0  0
   14.2128   -0.8670    0.0000 C   0  0  0  0  0  0  0  0  0  0  0  0
   14.2128   -2.5171    0.0000 C   0  0  0  0  0  0  0  0  0  0  0  0
   14.9273   -2.1046    0.0000 N   0  0  0  0  0  0  0  0  0  0  0  0
   14.9273   -1.2795    0.0000 C   0  0  0  0  0  0  0  0  0  0  0  0
   15.6418   -0.8670    0.0000 C   0  0  0  0  0  0  0  0  0  0  0  0
   15.6418   -2.5171    0.0000 C   0  0  0  0  0  0  0  0  0  0  0  0
   16.3562   -2.1046    0.0000 C   0  0  0  0  0  0  0  0  0  0  0  0
   16.3562   -1.2795    0.0000 N   0  0  0  0  0  0  0  0  0  0  0  0
   12.7839    3.0370    0.0000 C   0  0  0  0  0  0  0  0  0  0  0  0
   12.0694    2.6244    0.0000 C   0  0  0  0  0  0  0  0  0  0  0  0
   12.0694    1.7994    0.0000 C   0  0  0  0  0  0  0  0  0  0  0  0
   12.7839    1.3869    0.0000 C   0  0  0  0  0  0  0  0  0  0  0  0
   13.4984    1.7994    0.0000 C   0  0  0  0  0  0  0  0  0  0  0  0
   13.4984    2.6244    0.0000 C   0  0  0  0  0  0  0  0  0  0  0  0
   14.2128    3.0370    0.0000 C   0  0  0  0  0  0  0  0  0  0  0  0
   14.2128    1.3869    0.0000 C   0  0  0  0  0  0  0  0  0  0  0  0
   14.9273    1.7994    0.0000 N   0  0  0  0  0  0  0  0  0  0  0  0
   14.9273    2.6244    0.0000 C   0  0  0  0  0  0  0  0  0  0  0  0
   11.3550    3.0369    0.0000 O   0  0  0  0  0  0  0  0  0  0  0  0
   11.3550    1.3869    0.0000 O   0  0  0  0  0  0  0  0  0  0  0  0
   10.6405    1.7994    0.0000 C   0  0  0  0  0  0  0  0  0  0  0  0
   14.3307   -1.6626    0.0000 C   0  0  0  0  0  0  0  0  0  0  0  0
   13.8003   -0.3883    0.0000 O   0  0  0  0  0  0  0  0  0  0  0  0
   14.6253   -0.1526    0.0000 S   0  0  0  0  0  0  0  0  0  0  0  0
   14.6253    0.6724    0.0000 C   0  0  0  0  0  0  0  0  0  0  0  0
   13.6295    0.8036    0.0000 C   0  0  0  0  0  0  0  0  0  0  0  0
   16.9890   -0.9215    0.0000 C   0  0  0  0  0  0  0  0  0  0  0  0
   12.8326    1.0171    0.0000 O   0  0  0  0  0  0  0  0  0  0  0  0
   15.6418   -3.3421    0.0000 O   0  0  0  0  0  0  0  0  0  0  0  0
   17.5946   -0.5362    0.0000 C   0  0  0  0  0  0  0  0  0  0  0  0
   17.5946    1.1138    0.0000 C   0  0  0  0  0  0  0  0  0  0  0  0
   16.8801    0.7013    0.0000 C   0  0  0  0  0  0  0  0  0  0  0  0
   18.3091   -0.1237    0.0000 C   0  0  0  0  0  0  0  0  0  0  0  0
   18.3091    0.7013    0.0000 C   0  0  0  0  0  0  0  0  0  0  0  0
   19.0235    1.1138    0.0000 C   0  0  0  0  0  0  0  0  0  0  0  0
   17.5946    1.9388    0.0000 O   0  0  0  0  0  0  0  0  0  0  0  0
   16.1657    1.1138    0.0000 O   0  0  0  0  0  0  0  0  0  0  0  0
   18.3091    2.3513    0.0000 C   0  0  0  0  0  0  0  0  0  0  0  0
   16.8801   -0.1237    0.0000 C   0  0  0  0  0  0  0  0  0  0  0  0
   17.5946   -1.3612    0.0000 C   0  0  0  0  0  0  0  0  0  0  0  0
  1  7  1  0
  1 11  1  0
  2  8  1  0
  2 13  1  0
  3  9  1  0
  3 11  1  0
  4 13  2  0
  5  8  2  0
  6  7  2  0
  7  9  1  0
  8 10  1  0
  9 10  2  0
 10 12  1  0
 13 14  1  0
  6 16  1  0
  5  6  1  0
 15  5  1  0
 16 17  1  0
 15 18  1  0
 19 18  1  0
 18 17  1  1
 17 20  1  0
 20 21  1  0
 21 22  1  0
 19 22  1  0
 23 24  2  0
 24 25  1  0
 25 26  2  0
 26 27  1  0
 23 28  1  0
 29 28  1  0
 27 28  2  0
 27 30  1  0
 30 31  1  0
 31 32  1  0
 29 32  1  0
 24 33  1  0
 25 34  1  0
 34 35  1  0
 16 36  1  1
 36 37  1  0
 15 38  1  1
 39 38  1  0
 30 39  1  6
 30 40  1  0
 37 40  1  0
 22 41  1  0
 40 42  2  0
 20 43  1  6
 54 44  1  0
 46 53  2  0
 53 44  1  0
 44 47  2  0
 45 46  1  0
 47 48  1  0
 45 48  2  0
 48 49  1  0
 45 50  1  0
 46 51  1  0
 50 52  1  0
 19 53  1  1
 21 54  1  1
M  END
$$$$
