
     RDKit          2D

 17 18  0  0  0  0  0  0  0  0999 V2000
    4.9232   -0.6075    0.0000 O   0  0  0  0  0  0  0  0  0  0  0  0
    3.0791    1.4232    0.0000 N   0  0  0  0  0  0  0  0  0  0  0  0
    3.8597    1.6746    0.0000 N   0  0  0  0  0  0  0  0  0  0  0  0
    3.8597    0.3468    0.0000 C   0  0  0  0  0  0  0  0  0  0  0  0
    5.1662    1.0106    0.0000 C   0  0  0  0  0  0  0  0  0  0  0  0
    4.3412    1.0106    0.0000 C   0  0  0  0  0  0  0  0  0  0  0  0
    3.0791    0.5981    0.0000 C   0  0  0  0  0  0  0  0  0  0  0  0
    3.5650   -1.0515    0.0000 C   0  0  0  0  0  0  0  0  0  0  0  0
    4.1159   -0.4374    0.0000 C   0  0  0  0  0  0  0  0  0  0  0  0
    5.5787    1.7252    0.0000 C   0  0  0  0  0  0  0  0  0  0  0  0
    5.5787    0.2962    0.0000 C   0  0  0  0  0  0  0  0  0  0  0  0
    2.3645    0.1856    0.0000 C   0  0  0  0  0  0  0  0  0  0  0  0
    3.8213   -1.8357    0.0000 C   0  0  0  0  0  0  0  0  0  0  0  0
    2.7577   -0.8814    0.0000 C   0  0  0  0  0  0  0  0  0  0  0  0
    2.3645    1.8357    0.0000 C   0  0  0  0  0  0  0  0  0  0  0  0
    1.6500    0.5981    0.0000 C   0  0  0  0  0  0  0  0  0  0  0  0
    1.6500    1.4232    0.0000 C   0  0  0  0  0  0  0  0  0  0  0  0
  1  9  2  0
  2  3  1  0
  2  7  1  0
  2 15  1  0
  3  6  2  0
  4  6  1  0
  4  7  2  0
  4  9  1  0
  5  6  1  0
  5 10  1  0
  5 11  1  0
  7 12  1  0
  8  9  1  0
  8 13  1  0
  8 14  1  0
 12 16  2  0
 15 17  2  0
 16 17  1  0
M  END
$$$$
