
     RDKit          2D

 17 18  0  0  0  0  0  0  0  0999 V2000
    2.4751    0.5404    0.0000 S   0  0  0  0  0  0  0  0  0  0  0  0
    1.6500    0.5404    0.0000 O   0  0  0  0  0  0  0  0  0  0  0  0
    3.3001    0.5404    0.0000 O   0  0  0  0  0  0  0  0  0  0  0  0
    2.4751    1.3654    0.0000 N   0  0  0  0  0  0  0  0  0  0  0  0
    2.4751   -2.7597    0.0000 N   0  0  0  0  0  0  0  0  0  0  0  0
    3.1895    2.6029    0.0000 N   0  0  0  0  0  0  0  0  0  0  0  0
    3.9041    1.3654    0.0000 N   0  0  0  0  0  0  0  0  0  0  0  0
    2.4751   -0.2846    0.0000 C   0  0  0  0  0  0  0  0  0  0  0  0
    1.7606   -0.6971    0.0000 C   0  0  0  0  0  0  0  0  0  0  0  0
    3.1895   -0.6971    0.0000 C   0  0  0  0  0  0  0  0  0  0  0  0
    2.4751   -1.9347    0.0000 C   0  0  0  0  0  0  0  0  0  0  0  0
    1.7606   -1.5222    0.0000 C   0  0  0  0  0  0  0  0  0  0  0  0
    3.1895   -1.5222    0.0000 C   0  0  0  0  0  0  0  0  0  0  0  0
    3.1895    1.7779    0.0000 C   0  0  0  0  0  0  0  0  0  0  0  0
    3.9041    3.0154    0.0000 C   0  0  0  0  0  0  0  0  0  0  0  0
    4.6185    1.7779    0.0000 C   0  0  0  0  0  0  0  0  0  0  0  0
    4.6185    2.6029    0.0000 C   0  0  0  0  0  0  0  0  0  0  0  0
  1  2  2  0
  1  3  2  0
  1  4  1  0
  1  8  1  0
  4 14  1  0
  5 11  1  0
  6 14  2  0
  6 15  1  0
  7 14  1  0
  7 16  2  0
  8  9  2  0
  8 10  1  0
  9 12  1  0
 10 13  2  0
 11 12  2  0
 11 13  1  0
 15 17  2  0
 16 17  1  0
M  CHG  1   4  -1
M  END
$$$$
