
     RDKit          2D

 49 53  0  0  1  0  0  0  0  0999 V2000
    7.2607    0.1836    0.0000 O   0  0  0  0  0  0  0  0  0  0  0  0
    6.6001   -0.7254    0.0000 O   0  0  0  0  0  0  0  0  0  0  0  0
    5.7751   -3.5834    0.0000 O   0  0  0  0  0  0  0  0  0  0  0  0
    9.7238    1.8515    0.0000 O   0  0  0  0  0  0  0  0  0  0  0  0
    7.8548    2.9791    0.0000 O   0  0  0  0  0  0  0  0  0  0  0  0
    2.8876   -2.8689    0.0000 O   0  0  0  0  0  0  0  0  0  0  0  0
    7.8377   -1.4399    0.0000 N   0  0  0  0  0  0  0  0  0  0  0  0
    8.6197    0.6253    0.0000 N   0  0  0  0  0  0  0  0  0  0  0  0
    5.7751   -2.1545    0.0000 N   0  0  0  0  0  0  0  0  0  0  0  0
    4.1251   -2.1545    0.0000 N   0  0  0  0  0  0  0  0  0  0  0  0
    9.2139    3.4208    0.0000 N   0  0  0  0  0  0  0  0  0  0  0  0
    2.0625   -1.4399    0.0000 N   0  0  0  0  0  0  0  0  0  0  0  0
    2.8876   -0.0110    0.0000 N   0  0  0  0  0  0  0  0  0  0  0  0
    9.1072   -1.0274    0.0000 C   0  0  0  0  0  0  0  0  0  0  0  0
    9.1072   -1.8524    0.0000 C   0  0  0  0  0  0  0  0  0  0  0  0
    8.3226   -0.7725    0.0000 C   0  0  0  0  0  0  0  0  0  0  0  0
    9.8879   -0.7760    0.0000 C   0  0  0  0  0  0  0  0  0  0  0  0
    9.8879   -2.1039    0.0000 C   0  0  0  0  0  0  0  0  0  0  0  0
    8.3226   -2.1074    0.0000 C   0  0  0  0  0  0  0  0  0  0  0  0
   10.3694   -1.4399    0.0000 C   0  0  0  0  0  0  0  0  0  0  0  0
    8.0677    0.0121    0.0000 C   0  0  0  0  0  0  0  0  0  0  0  0
    7.0127   -1.4399    0.0000 C   0  0  0  0  0  0  0  0  0  0  0  0
    6.6001   -2.1545    0.0000 C   0  0  0  0  0  0  0  0  0  0  0  0
    7.0127   -2.8689    0.0000 C   0  0  0  0  0  0  0  0  0  0  0  0
    8.3648    1.4099    0.0000 C   0  0  0  0  0  0  0  0  0  0  0  0
    7.4252   -3.5834    0.0000 C   0  0  0  0  0  0  0  0  0  0  0  0
    6.2982   -3.2814    0.0000 C   0  0  0  0  0  0  0  0  0  0  0  0
    7.7271   -2.4564    0.0000 C   0  0  0  0  0  0  0  0  0  0  0  0
    4.1251   -3.5834    0.0000 C   0  0  0  0  0  0  0  0  0  0  0  0
    4.5376   -2.8689    0.0000 C   0  0  0  0  0  0  0  0  0  0  0  0
    5.3626   -2.8689    0.0000 C   0  0  0  0  0  0  0  0  0  0  0  0
    7.5577    1.5814    0.0000 C   0  0  0  0  0  0  0  0  0  0  0  0
    3.3001   -3.5834    0.0000 C   0  0  0  0  0  0  0  0  0  0  0  0
    4.5376   -4.2979    0.0000 C   0  0  0  0  0  0  0  0  0  0  0  0
    8.9168    2.0230    0.0000 C   0  0  0  0  0  0  0  0  0  0  0  0
    2.8876   -4.2979    0.0000 C   0  0  0  0  0  0  0  0  0  0  0  0
    4.1251   -5.0124    0.0000 C   0  0  0  0  0  0  0  0  0  0  0  0
    3.3001   -5.0124    0.0000 C   0  0  0  0  0  0  0  0  0  0  0  0
    8.9590    4.2054    0.0000 C   0  0  0  0  0  0  0  0  0  0  0  0
    7.3028    2.3661    0.0000 C   0  0  0  0  0  0  0  0  0  0  0  0
    9.1305    5.0124    0.0000 C   0  0  0  0  0  0  0  0  0  0  0  0
    8.3459    4.7575    0.0000 C   0  0  0  0  0  0  0  0  0  0  0  0
    8.6619    2.8076    0.0000 C   0  0  0  0  0  0  0  0  0  0  0  0
    6.4959    2.5376    0.0000 C   0  0  0  0  0  0  0  0  0  0  0  0
    3.3001   -2.1545    0.0000 C   0  0  0  0  0  0  0  0  0  0  0  0
    2.8876   -1.4399    0.0000 C   0  0  0  0  0  0  0  0  0  0  0  0
    3.3001   -0.7254    0.0000 C   0  0  0  0  0  0  0  0  0  0  0  0
    1.6500   -0.7254    0.0000 C   0  0  0  0  0  0  0  0  0  0  0  0
    2.0625   -0.0110    0.0000 C   0  0  0  0  0  0  0  0  0  0  0  0
  1 21  2  0
  2 22  2  0
  3 31  2  0
  4 35  2  0
  5 43  2  0
  6 45  2  0
  7 16  1  0
  7 19  1  0
  7 22  1  0
  8 21  1  0
 25  8  1  0
 23  9  1  6
  9 31  1  0
 30 10  1  6
 10 45  1  0
 11 39  1  0
 11 43  1  0
 12 46  2  0
 12 48  1  0
 13 47  2  0
 13 49  1  0
 14 15  1  0
 14 16  1  0
 14 17  1  1
 15 18  1  1
 15 19  1  0
 16 21  1  6
 17 20  1  0
 18 20  1  0
 22 23  1  0
 23 24  1  0
 24 26  1  0
 24 27  1  0
 24 28  1  0
 25 32  1  1
 25 35  1  0
 29 30  1  0
 29 33  1  0
 29 34  1  0
 30 31  1  0
 32 40  1  0
 33 36  1  0
 34 37  1  0
 35 43  1  0
 36 38  1  0
 37 38  1  0
 39 41  1  0
 39 42  1  0
 40 44  1  0
 41 42  1  0
 45 46  1  0
 46 47  1  0
 48 49  2  0
M  END
$$$$
