
     RDKit          2D

 32 34  0  0  1  0  0  0  0  0999 V2000
   -3.2425    2.5559    0.0000 C   0  0  0  0  0  0  0  0  0  0  0  0
    3.9933   -2.4750    0.0000 C   0  0  0  0  0  0  0  0  0  0  0  0
   -2.0050    3.2703    0.0000 C   0  0  0  0  0  0  0  0  0  0  0  0
   -0.7675   -1.1269    0.0000 C   0  0  0  0  0  0  0  0  0  0  0  0
   -2.4175    2.5559    0.0000 C   0  0  0  0  0  0  0  0  0  0  0  0
    3.9933    0.8250    0.0000 C   0  0  0  0  0  0  0  0  0  0  0  0
    3.2789    1.2375    0.0000 C   0  0  0  0  0  0  0  0  0  0  0  0
    3.9933    0.0000    0.0000 C   0  0  0  0  0  0  0  0  0  0  0  0
    0.4699    1.8414    0.0000 C   0  0  0  0  0  0  0  0  0  0  0  0
    0.0574    2.5559    0.0000 C   0  0  0  0  0  0  0  0  0  0  0  0
   -0.7675    1.1269    0.0000 C   0  0  0  0  0  0  0  0  0  0  0  0
    0.0574   -0.3019    0.0000 C   0  0  0  0  0  0  0  0  0  0  0  0
    3.9933   -1.6500    0.0000 C   0  0  0  0  0  0  0  0  0  0  0  0
    0.0574    1.1269    0.0000 C   0  0  0  0  0  0  0  0  0  0  0  0
    2.5644    0.8250    0.0000 C   0  0  0  0  0  0  0  0  0  0  0  0
    3.2789   -0.4125    0.0000 C   0  0  0  0  0  0  0  0  0  0  0  0
    0.4699    0.4125    0.0000 C   0  0  0  0  0  0  0  0  0  0  0  0
   -0.7675    2.5559    0.0000 C   0  0  0  0  0  0  0  0  0  0  0  0
   -1.1800    1.8414    0.0000 C   0  0  0  0  0  0  0  0  0  0  0  0
    2.5644    0.0000    0.0000 C   0  0  0  0  0  0  0  0  0  0  0  0
    1.7798    1.0799    0.0000 C   0  0  0  0  0  0  0  0  0  0  0  0
    1.7798   -0.2549    0.0000 C   0  0  0  0  0  0  0  0  0  0  0  0
    3.2789   -1.2375    0.0000 N   0  0  0  0  0  0  0  0  0  0  0  0
    1.2949    0.4125    0.0000 N   0  0  0  0  0  0  0  0  0  0  0  0
    4.7078   -1.2375    0.0000 O   0  0  0  0  0  0  0  0  0  0  0  0
    1.5248    1.8645    0.0000 O   0  0  0  0  0  0  0  0  0  0  0  0
    1.5248   -1.0395    0.0000 O   0  0  0  0  0  0  0  0  0  0  0  0
   -0.7675    0.5230    0.0000 O   0  0  0  0  0  0  0  0  0  0  0  0
   -1.5925   -0.3019    0.0000 O   0  0  0  0  0  0  0  0  0  0  0  0
   -1.1800    3.2703    0.0000 O   0  0  0  0  0  0  0  0  0  0  0  0
   -2.0050    1.8414    0.0000 O   0  0  0  0  0  0  0  0  0  0  0  0
   -0.7675   -0.3019    0.0000 S   0  0  0  0  0  0  0  0  0  0  0  0
  5  1  1  0
  7  6  2  0
  8  6  1  0
 10  9  2  0
 13  2  1  0
 14  9  1  0
 14 11  2  0
 15  7  1  0
 16  8  2  0
 17 12  1  6
 17 14  1  0
 18 10  1  0
 19 11  1  0
 19 18  2  0
 20 15  2  0
 20 16  1  0
 21 15  1  0
 22 20  1  0
 23 13  2  3
 23 16  1  0
 17 24  1  0
 24 21  1  0
 24 22  1  0
 25 13  1  0
 26 21  2  0
 27 22  2  0
 30  3  1  0
 30 18  1  0
 31  5  1  0
 31 19  1  0
 32  4  1  0
 32 12  1  0
 32 28  2  0
 32 29  2  0
M  END
$$$$
