
     RDKit          2D

 30 33  0  0  0  0  0  0  0  0999 V2000
    1.1616    0.8390    0.0000 C   0  0  0  0  0  0  0  0  0  0  0  0
    1.7450    0.2556    0.0000 C   0  0  0  0  0  0  0  0  0  0  0  0
    1.1616   -0.3276    0.0000 N   0  0  0  0  0  0  0  0  0  0  0  0
    0.5782    0.2556    0.0000 C   0  0  0  0  0  0  0  0  0  0  0  0
    0.5782    1.4224    0.0000 O   0  0  0  0  0  0  0  0  0  0  0  0
    1.7450    1.4224    0.0000 C   0  0  0  0  0  0  0  0  0  0  0  0
   -0.2672   -1.1526    0.0000 C   0  0  0  0  0  0  0  0  0  0  0  0
    0.4471   -1.5651    0.0000 C   0  0  0  0  0  0  0  0  0  0  0  0
   -0.2672   -0.3276    0.0000 N   0  0  0  0  0  0  0  0  0  0  0  0
   -0.9818   -1.5651    0.0000 C   0  0  0  0  0  0  0  0  0  0  0  0
   -1.6962   -1.1526    0.0000 F   0  0  0  0  0  0  0  0  0  0  0  0
   -0.9818   -2.3901    0.0000 C   0  0  0  0  0  0  0  0  0  0  0  0
   -1.6962   -2.8026    0.0000 F   0  0  0  0  0  0  0  0  0  0  0  0
   -0.2672   -2.8026    0.0000 C   0  0  0  0  0  0  0  0  0  0  0  0
    0.4471   -2.3901    0.0000 C   0  0  0  0  0  0  0  0  0  0  0  0
    1.1616   -1.1526    0.0000 C   0  0  0  0  0  0  0  0  0  0  0  0
    1.8761   -1.5651    0.0000 O   0  0  0  0  0  0  0  0  0  0  0  0
   -1.6962    1.3223    0.0000 C   0  0  0  0  0  0  0  0  0  0  0  0
   -0.9818    0.9098    0.0000 C   0  0  0  0  0  0  0  0  0  0  0  0
   -2.4108    0.9098    0.0000 C   0  0  0  0  0  0  0  0  0  0  0  0
   -2.4108    0.0848    0.0000 C   0  0  0  0  0  0  0  0  0  0  0  0
   -1.6962   -0.3276    0.0000 C   0  0  0  0  0  0  0  0  0  0  0  0
   -0.9818    0.0848    0.0000 C   0  0  0  0  0  0  0  0  0  0  0  0
   -0.2672    1.3223    0.0000 F   0  0  0  0  0  0  0  0  0  0  0  0
   -3.1252    1.3223    0.0000 I   0  0  0  0  0  0  0  0  0  0  0  0
    2.1148    2.8026    0.0000 C   0  0  0  0  0  0  0  0  0  0  0  0
    1.5314    2.2192    0.0000 C   0  0  0  0  0  0  0  0  0  0  0  0
    2.5419    1.2088    0.0000 N   0  0  0  0  0  0  0  0  0  0  0  0
    3.1252    1.7922    0.0000 C   0  0  0  0  0  0  0  0  0  0  0  0
    2.9117    2.5891    0.0000 C   0  0  0  0  0  0  0  0  0  0  0  0
  1  2  1  0
  1  5  1  0
  4  1  1  0
  6  1  1  6
  2  3  1  0
  3  4  1  0
 16  3  1  0
 27  6  1  0
  6 28  1  0
  7  8  1  0
  7 10  2  0
  9  7  1  0
 15  8  2  0
 16  8  1  0
 23  9  1  0
 10 12  1  0
 11 10  1  0
 12 13  1  0
 12 14  2  0
 14 15  1  0
 17 16  2  0
 18 19  2  0
 18 20  1  0
 19 23  1  0
 24 19  1  0
 20 21  2  0
 20 25  1  0
 21 22  1  0
 23 22  2  0
 26 27  1  0
 26 30  1  0
 28 29  1  0
 29 30  1  0
M  END
$$$$
