65781
     RDKit          2D

 26 28  0  0  1  0  0  0  0  0999 V2000
    5.3063    2.0741    0.0000 S   0  0  0  0  0  0  0  0  0  0  0  0
    1.9007   -2.4530    0.0000 O   0  0  0  0  0  0  0  0  0  0  0  0
    3.1463   -3.1531    0.0000 O   0  0  0  0  0  0  0  0  0  0  0  0
    5.3031    2.8991    0.0000 O   0  0  0  0  0  0  0  0  0  0  0  0
    4.4813    2.0709    0.0000 O   0  0  0  0  0  0  0  0  0  0  0  0
    6.1312    2.0772    0.0000 O   0  0  0  0  0  0  0  0  0  0  0  0
    3.8673   -1.2831    0.0000 C   0  0  0  0  0  0  0  0  0  0  0  0
    3.8673   -0.4581    0.0000 C   0  0  0  0  0  0  0  0  0  0  0  0
    3.1298   -1.7243    0.0000 C   0  0  0  0  0  0  0  0  0  0  0  0
    3.1298   -0.0170    0.0000 C   0  0  0  0  0  0  0  0  0  0  0  0
    4.5818   -1.6956    0.0000 C   0  0  0  0  0  0  0  0  0  0  0  0
    2.3823   -1.3003    0.0000 C   0  0  0  0  0  0  0  0  0  0  0  0
    2.3823   -0.4410    0.0000 C   0  0  0  0  0  0  0  0  0  0  0  0
    4.5818   -0.0456    0.0000 C   0  0  0  0  0  0  0  0  0  0  0  0
    5.2962   -1.2831    0.0000 C   0  0  0  0  0  0  0  0  0  0  0  0
    3.8673    0.3669    0.0000 C   0  0  0  0  0  0  0  0  0  0  0  0
    5.2962   -0.4581    0.0000 C   0  0  0  0  0  0  0  0  0  0  0  0
    3.5505   -2.4339    0.0000 C   0  0  0  0  0  0  0  0  0  0  0  0
    2.7256   -2.4434    0.0000 C   0  0  0  0  0  0  0  0  0  0  0  0
    4.5686    0.8136    0.0000 C   0  0  0  0  0  0  0  0  0  0  0  0
    6.0470   -0.0399    0.0000 C   0  0  0  0  0  0  0  0  0  0  0  0
    5.3094    1.2491    0.0000 C   0  0  0  0  0  0  0  0  0  0  0  0
    6.0537    0.8194    0.0000 C   0  0  0  0  0  0  0  0  0  0  0  0
    6.7697    1.2291    0.0000 C   0  0  0  0  0  0  0  0  0  0  0  0
    7.4826    0.8139    0.0000 C   0  0  0  0  0  0  0  0  0  0  0  0
    6.7729    2.0541    0.0000 C   0  0  0  0  0  0  0  0  0  0  0  0
  1  4  1  0
  1  5  2  0
  1  6  2  0
  1 22  1  0
  2 19  1  0
  3 19  2  0
  7  8  1  0
  7  9  1  0
  7 11  1  1
  8 10  1  0
  8 14  1  0
  8 16  1  1
  9 12  1  0
  9 18  1  1
  9 19  1  0
 10 13  1  0
 11 15  1  0
 12 13  1  0
 14 17  2  0
 14 20  1  0
 15 17  1  0
 17 21  1  0
 20 22  2  0
 21 23  2  0
 22 23  1  0
 23 24  1  0
 24 25  1  0
 24 26  1  0
M  END
$$$$
