
     RDKit          2D

 15 15  0  0  1  0  0  0  0  0999 V2000
    4.5311   -0.2899    0.0000 O   0  0  0  0  0  0  0  0  0  0  0  0
    1.6500   -1.3450    0.0000 O   0  0  0  0  0  0  0  0  0  0  0  0
    3.0791   -0.5199    0.0000 N   0  0  0  0  0  0  0  0  0  0  0  0
    2.3645   -2.5825    0.0000 N   0  0  0  0  0  0  0  0  0  0  0  0
    2.6666    0.7496    0.0000 C   0  0  0  0  0  0  0  0  0  0  0  0
    2.4115   -0.0350    0.0000 C   0  0  0  0  0  0  0  0  0  0  0  0
    3.4916    0.7496    0.0000 C   0  0  0  0  0  0  0  0  0  0  0  0
    2.1816    1.4171    0.0000 C   0  0  0  0  0  0  0  0  0  0  0  0
    3.0791   -1.3450    0.0000 C   0  0  0  0  0  0  0  0  0  0  0  0
    3.7465   -0.0350    0.0000 C   0  0  0  0  0  0  0  0  0  0  0  0
    2.5171    2.1708    0.0000 C   0  0  0  0  0  0  0  0  0  0  0  0
    3.7935   -1.7575    0.0000 C   0  0  0  0  0  0  0  0  0  0  0  0
    2.3645   -1.7575    0.0000 C   0  0  0  0  0  0  0  0  0  0  0  0
    2.0322    2.8382    0.0000 C   0  0  0  0  0  0  0  0  0  0  0  0
    3.7935   -2.5825    0.0000 C   0  0  0  0  0  0  0  0  0  0  0  0
  1 10  2  0
  2 13  2  0
  3  6  1  0
  3  9  1  0
  3 10  1  0
  4 13  1  0
  5  6  1  0
  5  7  1  0
  5  8  1  6
  7 10  1  0
  8 11  1  0
  9 12  1  1
  9 13  1  0
 11 14  1  0
 12 15  1  0
M  END
$$$$
