
     RDKit          2D

 25 27  0  0  0  0  0  0  0  0999 V2000
   -0.5795   -0.7697    0.0000 C   0  0  0  0  0  0  0  0  0  0  0  0
   -0.9920   -0.0552    0.0000 C   0  0  0  0  0  0  0  0  0  0  0  0
   -1.8170   -0.0552    0.0000 C   0  0  0  0  0  0  0  0  0  0  0  0
   -2.2295    0.6592    0.0000 C   0  0  0  0  0  0  0  0  0  0  0  0
   -1.8170    1.3736    0.0000 C   0  0  0  0  0  0  0  0  0  0  0  0
   -0.9920    1.3736    0.0000 N   0  0  0  0  0  0  0  0  0  0  0  0
   -0.5795    0.6592    0.0000 C   0  0  0  0  0  0  0  0  0  0  0  0
    0.2454    0.6592    0.0000 C   0  0  0  0  0  0  0  0  0  0  0  0
    0.6579    1.3736    0.0000 S   0  0  0  0  0  0  0  0  0  0  0  0
    0.2454    2.0881    0.0000 O   0  0  0  0  0  0  0  0  0  0  0  0
    1.4829    1.3736    0.0000 C   0  0  0  0  0  0  0  0  0  0  0  0
    1.9679    2.0411    0.0000 N   0  0  0  0  0  0  0  0  0  0  0  0
    2.7525    1.7861    0.0000 C   0  0  0  0  0  0  0  0  0  0  0  0
    3.4670    2.1986    0.0000 C   0  0  0  0  0  0  0  0  0  0  0  0
    4.1814    1.7861    0.0000 C   0  0  0  0  0  0  0  0  0  0  0  0
    4.1814    0.9611    0.0000 C   0  0  0  0  0  0  0  0  0  0  0  0
    3.4670    0.5486    0.0000 C   0  0  0  0  0  0  0  0  0  0  0  0
    2.7525    0.9611    0.0000 C   0  0  0  0  0  0  0  0  0  0  0  0
    1.9679    0.7062    0.0000 N   0  0  0  0  0  0  0  0  0  0  0  0
   -2.2295   -0.7697    0.0000 O   0  0  0  0  0  0  0  0  0  0  0  0
   -3.0545   -0.7697    0.0000 C   0  0  0  0  0  0  0  0  0  0  0  0
   -3.4670   -1.4842    0.0000 C   0  0  0  0  0  0  0  0  0  0  0  0
   -3.8795   -2.1986    0.0000 F   0  0  0  0  0  0  0  0  0  0  0  0
   -4.1814   -1.0717    0.0000 F   0  0  0  0  0  0  0  0  0  0  0  0
   -2.7525   -1.8967    0.0000 F   0  0  0  0  0  0  0  0  0  0  0  0
  1  2  1  0
  2  3  2  0
  3  4  1  0
  4  5  2  0
  5  6  1  0
  6  7  2  0
  2  7  1  0
  7  8  1  0
  9  8  1  1
  9 10  2  0
  9 11  1  0
 11 12  1  0
 12 13  1  0
 13 14  2  0
 14 15  1  0
 15 16  2  0
 16 17  1  0
 17 18  2  0
 13 18  1  0
 18 19  1  0
 11 19  2  0
  3 20  1  0
 20 21  1  0
 21 22  1  0
 22 23  1  0
 22 24  1  0
 22 25  1  0
M  END
$$$$
