
     RDKit          2D

 31 34  0  0  0  0  0  0  0  0999 V2000
    5.2470  -17.8073    0.0000 Sb  0  0  0  0  0  5  0  0  0  0  0  0
    5.2470  -18.6323    0.0000 O   0  0  0  0  0  0  0  0  0  0  0  0
    4.5325  -17.3948    0.0000 O   0  0  0  0  0  0  0  0  0  0  0  0
    4.5325  -19.0448    0.0000 C   0  0  0  0  0  0  0  0  0  0  0  0
    3.8180  -17.8073    0.0000 C   0  0  0  0  0  0  0  0  0  0  0  0
    3.8180  -18.6323    0.0000 C   0  0  0  0  0  0  0  0  0  0  0  0
    4.4531  -18.0309    0.0000 O   0  0  0  0  0  0  0  0  0  0  0  0
    4.5326  -19.8698    0.0000 C   0  0  0  0  0  0  0  0  0  0  0  0
    3.8181  -20.2823    0.0000 O   0  0  0  0  0  0  0  0  0  0  0  0
    5.2470  -20.2822    0.0000 O   0  0  0  0  0  0  0  0  0  0  0  0
    3.1036  -17.3948    0.0000 C   0  0  0  0  0  0  0  0  0  0  0  0
    3.1036  -16.5697    0.0000 O   0  0  0  0  0  0  0  0  0  0  0  0
    2.3891  -17.8073    0.0000 C   0  0  0  0  0  0  0  0  0  0  0  0
    1.6746  -17.3948    0.0000 O   0  0  0  0  0  0  0  0  0  0  0  0
    5.9639  -17.4047    0.0000 O   0  0  0  0  0  0  0  0  0  0  0  0
    6.6808  -17.8073    0.0000 Sb  0  0  0  0  0  5  0  0  0  0  0  0
    6.6808  -18.6323    0.0000 O   0  0  0  0  0  0  0  0  0  0  0  0
    7.3953  -17.3948    0.0000 O   0  0  0  0  0  0  0  0  0  0  0  0
    7.3953  -19.0448    0.0000 C   0  0  0  0  0  0  0  0  0  0  0  0
    8.1098  -17.8073    0.0000 C   0  0  0  0  0  0  0  0  0  0  0  0
    8.1098  -18.6323    0.0000 C   0  0  0  0  0  0  0  0  0  0  0  0
    7.4748  -18.0309    0.0000 O   0  0  0  0  0  0  0  0  0  0  0  0
    7.3952  -19.8698    0.0000 C   0  0  0  0  0  0  0  0  0  0  0  0
    8.1097  -20.2823    0.0000 O   0  0  0  0  0  0  0  0  0  0  0  0
    6.6808  -20.2822    0.0000 O   0  0  0  0  0  0  0  0  0  0  0  0
    8.8242  -17.3948    0.0000 C   0  0  0  0  0  0  0  0  0  0  0  0
    8.8242  -16.5697    0.0000 O   0  0  0  0  0  0  0  0  0  0  0  0
    9.5387  -17.8073    0.0000 C   0  0  0  0  0  0  0  0  0  0  0  0
   10.2532  -17.3948    0.0000 O   0  0  0  0  0  0  0  0  0  0  0  0
    5.2482  -16.9872    0.0000 O   0  0  0  0  0  0  0  0  0  0  0  0
    6.6796  -16.9872    0.0000 O   0  0  0  0  0  0  0  0  0  0  0  0
  2  1  1  0
  3  1  1  0
  4  2  1  0
  5  3  1  1
  6  4  1  0
  6  5  1  0
  1  7  1  0
  6  7  1  1
  4  8  1  1
  8  9  1  0
  8 10  2  0
  5 11  1  0
 11 12  1  1
 11 13  1  0
 13 14  1  0
  1 15  1  0
 17 16  1  0
 18 16  1  0
 19 17  1  0
 20 18  1  6
 21 19  1  0
 21 20  1  0
 16 22  1  0
 21 22  1  6
 19 23  1  6
 23 24  1  0
 23 25  2  0
 20 26  1  0
 26 27  1  6
 26 28  1  0
 28 29  1  0
 16 15  1  0
  1 30  1  0
 16 31  1  0
M  CHG  3   9  -1  24  -1  31  -1
M  END
$$$$
