
     RDKit          2D

 30 33  0  0  1  0  0  0  0  0999 V2000
    2.7441    1.8430    0.0000 C   0  0  0  0  0  0  0  0  0  0  0  0
    6.8256   -1.9175    0.0000 C   0  0  0  0  0  0  0  0  0  0  0  0
    5.0373   -2.1482    0.0000 C   0  0  0  0  0  0  0  0  0  0  0  0
    2.5214   -1.7461    0.0000 C   0  0  0  0  0  0  0  0  0  0  0  0
    2.2123    1.2123    0.0000 C   0  0  0  0  0  0  0  0  0  0  0  0
    5.6974   -2.7946    0.0000 C   0  0  0  0  0  0  0  0  0  0  0  0
    5.7313   -0.5866    0.0000 C   0  0  0  0  0  0  0  0  0  0  0  0
    5.0484   -0.1236    0.0000 C   0  0  0  0  0  0  0  0  0  0  0  0
    6.2038   -3.4459    0.0000 C   0  0  0  0  0  0  0  0  0  0  0  0
    0.8971   -1.4557    0.0000 C   0  0  0  0  0  0  0  0  0  0  0  0
    3.3335   -1.8914    0.0000 C   0  0  0  0  0  0  0  0  0  0  0  0
    1.7092   -1.6009    0.0000 C   0  0  0  0  0  0  0  0  0  0  0  0
    4.1456   -2.0366    0.0000 C   0  0  0  0  0  0  0  0  0  0  0  0
    1.1486   -0.0491    0.0000 C   0  0  0  0  0  0  0  0  0  0  0  0
    6.0083   -2.0304    0.0000 C   0  0  0  0  0  0  0  0  0  0  0  0
    0.6168   -0.6798    0.0000 C   0  0  0  0  0  0  0  0  0  0  0  0
    2.4926    0.4364    0.0000 C   0  0  0  0  0  0  0  0  0  0  0  0
    5.5020   -1.3791    0.0000 C   0  0  0  0  0  0  0  0  0  0  0  0
    4.3971   -0.6299    0.0000 C   0  0  0  0  0  0  0  0  0  0  0  0
    3.0532   -1.1154    0.0000 C   0  0  0  0  0  0  0  0  0  0  0  0
    1.9608   -0.1943    0.0000 C   0  0  0  0  0  0  0  0  0  0  0  0
    5.8929   -4.2101    0.0000 C   0  0  0  0  0  0  0  0  0  0  0  0
    3.5850   -0.4847    0.0000 C   0  0  0  0  0  0  0  0  0  0  0  0
    3.3047    0.2912    0.0000 C   0  0  0  0  0  0  0  0  0  0  0  0
    4.6774   -1.4059    0.0000 C   0  0  0  0  0  0  0  0  0  0  0  0
    2.2411   -0.9702    0.0000 C   0  0  0  0  0  0  0  0  0  0  0  0
   -0.1953   -0.5346    0.0000 O   0  0  0  0  0  0  0  0  0  0  0  0
    6.3993   -4.8614    0.0000 O   0  0  0  0  0  0  0  0  0  0  0  0
    5.0757   -4.3229    0.0000 O   0  0  0  0  0  0  0  0  0  0  0  0
    3.8365    0.9219    0.0000 O   0  0  0  0  0  0  0  0  0  0  0  0
  5  1  1  0
  8  7  1  0
  9  6  1  0
 12 10  1  0
 13 11  1  0
 15  2  1  6
 15  6  1  0
 16 10  1  0
 16 14  1  0
 17  5  1  1
 18  7  1  6
 18 15  1  0
 19  8  1  6
 20 11  1  6
 21 14  1  1
 21 17  1  0
 22  9  1  0
 23 19  1  0
 23 20  1  0
 24 17  1  0
 23 24  1  1
 25  3  1  6
 25 13  1  0
 25 18  1  0
 25 19  1  0
 26  4  1  6
 26 12  1  0
 26 20  1  0
 26 21  1  0
 16 27  1  1
 28 22  2  0
 29 22  1  0
 24 30  1  1
M  END
$$$$
