
     RDKit          2D

 26 30  0  0  1  0  0  0  0  0999 V2000
   12.5273   -9.5171    0.0000 C   0  0  0  0  0  0  0  0  0  0  0  0
   12.5273  -10.3421    0.0000 C   0  0  0  0  0  0  0  0  0  0  0  0
   13.2417  -10.7546    0.0000 C   0  0  0  0  0  0  0  0  0  0  0  0
   13.9563  -10.3421    0.0000 C   0  0  0  0  0  0  0  0  0  0  0  0
   13.9563   -9.5171    0.0000 C   0  0  0  0  0  0  0  0  0  0  0  0
   13.2417   -9.1046    0.0000 C   0  0  0  0  0  0  0  0  0  0  0  0
   14.6707  -10.7546    0.0000 C   0  0  0  0  0  0  0  0  0  0  0  0
   15.3851  -10.3421    0.0000 C   0  0  0  0  0  0  0  0  0  0  0  0
   15.3851   -9.5171    0.0000 C   0  0  0  0  0  0  0  0  0  0  0  0
   14.6707   -9.1046    0.0000 C   0  0  0  0  0  0  0  0  0  0  0  0
   15.3851   -7.8671    0.0000 C   0  0  0  0  0  0  0  0  0  0  0  0
   14.6707   -8.2796    0.0000 C   0  0  0  0  0  0  0  0  0  0  0  0
   11.8128  -10.7546    0.0000 O   0  0  0  0  0  0  0  0  0  0  0  0
   13.9563   -8.6921    0.0000 C   0  0  0  0  0  0  0  0  0  0  0  0
   16.0996   -7.4546    0.0000 C   0  0  0  0  0  0  0  0  0  0  0  0
   16.8843   -8.0246    0.0000 C   0  0  0  0  0  0  0  0  0  0  0  0
   16.0996   -8.2796    0.0000 C   0  0  0  0  0  0  0  0  0  0  0  0
   16.0996   -9.1046    0.0000 C   0  0  0  0  0  0  0  0  0  0  0  0
   16.8843   -9.3596    0.0000 C   0  0  0  0  0  0  0  0  0  0  0  0
   17.3692   -8.6922    0.0000 C   0  0  0  0  0  0  0  0  0  0  0  0
   17.1393   -7.2401    0.0000 C   0  0  0  0  0  0  0  0  0  0  0  0
   16.5873   -6.6269    0.0000 C   0  0  0  0  0  0  0  0  0  0  0  0
   17.9463   -7.0686    0.0000 C   0  0  0  0  0  0  0  0  0  0  0  0
   16.8423   -5.8423    0.0000 N   0  0  0  0  0  0  0  0  0  0  0  0
   18.2013   -6.2840    0.0000 C   0  0  0  0  0  0  0  0  0  0  0  0
   17.6494   -5.6709    0.0000 C   0  0  0  0  0  0  0  0  0  0  0  0
  1  2  1  0
  2  3  1  0
  3  4  1  0
  4  5  1  0
  5  6  1  0
  1  6  1  0
  4  7  2  0
  7  8  1  0
  9  8  1  6
  9 10  1  0
  5 10  1  0
  9 18  1  0
 17 11  1  0
 11 12  1  0
 10 12  1  1
  2 13  1  1
  5 14  1  1
 17 15  1  1
 16 17  1  0
 18 19  1  1
 19 20  1  0
 16 20  2  0
 17 18  1  0
 22 21  2  0
 23 21  1  0
 24 22  1  0
 25 23  2  0
 26 24  2  0
 26 25  1  0
 16 21  1  0
M  END
$$$$
