
     RDKit          2D

 22 23  0  0  0  0  0  0  0  0999 V2000
   -4.2843   -0.2103    0.0000 C   0  0  0  0  0  0  0  0  0  0  0  0
   -4.2855   -1.0376    0.0000 C   0  0  0  0  0  0  0  0  0  0  0  0
   -3.5707   -1.4506    0.0000 C   0  0  0  0  0  0  0  0  0  0  0  0
   -2.8542   -1.0371    0.0000 C   0  0  0  0  0  0  0  0  0  0  0  0
   -2.8571   -0.2066    0.0000 C   0  0  0  0  0  0  0  0  0  0  0  0
   -3.5725    0.2023    0.0000 C   0  0  0  0  0  0  0  0  0  0  0  0
   -2.1441    0.2084    0.0000 N   0  0  0  0  0  0  0  0  0  0  0  0
   -1.4281   -0.2012    0.0000 S   0  0  0  0  0  0  0  0  0  0  0  0
   -0.7150    0.2139    0.0000 C   0  0  0  0  0  0  0  0  0  0  0  0
   -0.0007   -0.1993    0.0000 C   0  0  0  0  0  0  0  0  0  0  0  0
    0.7116    0.2151    0.0000 C   0  0  0  0  0  0  0  0  0  0  0  0
    0.7089    1.0409    0.0000 C   0  0  0  0  0  0  0  0  0  0  0  0
   -0.0120    1.4506    0.0000 C   0  0  0  0  0  0  0  0  0  0  0  0
   -0.7214    1.0337    0.0000 C   0  0  0  0  0  0  0  0  0  0  0  0
   -1.8453   -0.9104    0.0000 O   0  0  0  0  0  0  0  0  0  0  0  0
   -1.0203   -0.9104    0.0000 O   0  0  0  0  0  0  0  0  0  0  0  0
    1.4275   -0.1949    0.0000 C   0  0  0  0  0  0  0  0  0  0  0  0
    2.1406    0.2198    0.0000 C   0  0  0  0  0  0  0  0  0  0  0  0
    2.8566   -0.1902    0.0000 C   0  0  0  0  0  0  0  0  0  0  0  0
    2.8593   -1.0153    0.0000 O   0  0  0  0  0  0  0  0  0  0  0  0
    3.5697    0.2245    0.0000 N   0  0  0  0  0  0  0  0  0  0  0  0
    4.2855   -0.1855    0.0000 O   0  0  0  0  0  0  0  0  0  0  0  0
 10 11  2  0
  5  6  1  0
 11 12  1  0
  6  1  2  0
 12 13  2  0
  1  2  1  0
 13 14  1  0
 14  9  2  0
  5  7  1  0
  8 15  2  0
  3  4  1  0
  8 16  2  0
  7  8  1  0
 11 17  1  0
 17 18  2  0
  8  9  1  0
 18 19  1  0
  4  5  2  0
 19 20  2  0
  9 10  1  0
 19 21  1  0
  2  3  2  0
 21 22  1  0
M  END
$$$$
