
     RDKit          2D

 21 23  0  0  0  0  0  0  0  0999 V2000
    5.8469    1.1959    0.0000 F   0  0  0  0  0  0  0  0  0  0  0  0
    3.3809    1.3684    0.0000 O   0  0  0  0  0  0  0  0  0  0  0  0
    2.3645   -3.2012    0.0000 O   0  0  0  0  0  0  0  0  0  0  0  0
    1.6500   -1.9637    0.0000 O   0  0  0  0  0  0  0  0  0  0  0  0
    4.4609    0.5838    0.0000 N   0  0  0  0  0  0  0  0  0  0  0  0
    3.1260    0.5838    0.0000 N   0  0  0  0  0  0  0  0  0  0  0  0
    3.7935   -0.7262    0.0000 C   0  0  0  0  0  0  0  0  0  0  0  0
    3.7935    0.0988    0.0000 C   0  0  0  0  0  0  0  0  0  0  0  0
    4.6909    2.0358    0.0000 C   0  0  0  0  0  0  0  0  0  0  0  0
    4.2060    1.3684    0.0000 C   0  0  0  0  0  0  0  0  0  0  0  0
    3.0790   -1.1387    0.0000 C   0  0  0  0  0  0  0  0  0  0  0  0
    3.0790   -1.9637    0.0000 C   0  0  0  0  0  0  0  0  0  0  0  0
    4.5079   -1.1387    0.0000 C   0  0  0  0  0  0  0  0  0  0  0  0
    3.7935   -2.3762    0.0000 C   0  0  0  0  0  0  0  0  0  0  0  0
    4.5079   -1.9637    0.0000 C   0  0  0  0  0  0  0  0  0  0  0  0
    5.5114    1.9496    0.0000 C   0  0  0  0  0  0  0  0  0  0  0  0
    4.3553    2.7895    0.0000 C   0  0  0  0  0  0  0  0  0  0  0  0
    5.9963    2.6170    0.0000 C   0  0  0  0  0  0  0  0  0  0  0  0
    4.8402    3.4569    0.0000 C   0  0  0  0  0  0  0  0  0  0  0  0
    5.6607    3.3707    0.0000 C   0  0  0  0  0  0  0  0  0  0  0  0
    2.3645   -2.3762    0.0000 C   0  0  0  0  0  0  0  0  0  0  0  0
  1 16  1  0
  2  6  1  0
  2 10  1  0
  3 21  1  0
  4 21  2  0
  5  8  1  0
  5 10  2  0
  6  8  2  0
  7  8  1  0
  7 11  2  0
  7 13  1  0
  9 10  1  0
  9 16  2  0
  9 17  1  0
 11 12  1  0
 12 14  2  0
 12 21  1  0
 13 15  2  0
 14 15  1  0
 16 18  1  0
 17 19  2  0
 18 20  2  0
 19 20  1  0
M  END
$$$$
