[NO NAME]
     RDKit          2D

 29 32  0  0  1  0  0  0  0  0999 V2000
    7.5678   -0.2005    0.0000 O   0  0  0  0  0  0  0  0  0  0  0  0
    6.8533   -3.9131    0.0000 O   0  0  0  0  0  0  0  0  0  0  0  0
    9.7657   -3.1080    0.0000 O   0  0  0  0  0  0  0  0  0  0  0  0
    6.1389    0.6245    0.0000 N   0  0  0  0  0  0  0  0  0  0  0  0
    8.3054   -3.1167    0.0000 N   0  0  0  0  0  0  0  0  0  0  0  0
    5.4244    1.0370    0.0000 C   0  0  0  0  0  0  0  0  0  0  0  0
    4.6755    0.7028    0.0000 C   0  0  0  0  0  0  0  0  0  0  0  0
    5.3394    1.8527    0.0000 C   0  0  0  0  0  0  0  0  0  0  0  0
    4.1251    1.3109    0.0000 C   0  0  0  0  0  0  0  0  0  0  0  0
    4.5376    2.0253    0.0000 C   0  0  0  0  0  0  0  0  0  0  0  0
    3.3001    1.3109    0.0000 C   0  0  0  0  0  0  0  0  0  0  0  0
    4.1251    2.7399    0.0000 C   0  0  0  0  0  0  0  0  0  0  0  0
    6.1389   -0.2005    0.0000 C   0  0  0  0  0  0  0  0  0  0  0  0
    2.8876    2.0253    0.0000 C   0  0  0  0  0  0  0  0  0  0  0  0
    3.3001    2.7399    0.0000 C   0  0  0  0  0  0  0  0  0  0  0  0
    6.8533   -0.6130    0.0000 C   0  0  0  0  0  0  0  0  0  0  0  0
    2.0625    2.0253    0.0000 C   0  0  0  0  0  0  0  0  0  0  0  0
    2.8876    3.4544    0.0000 C   0  0  0  0  0  0  0  0  0  0  0  0
    6.8533   -1.4380    0.0000 C   0  0  0  0  0  0  0  0  0  0  0  0
    7.5678   -1.8505    0.0000 C   0  0  0  0  0  0  0  0  0  0  0  0
    1.6500    1.3109    0.0000 C   0  0  0  0  0  0  0  0  0  0  0  0
    3.3001    4.1688    0.0000 C   0  0  0  0  0  0  0  0  0  0  0  0
    6.1389   -1.8505    0.0000 C   0  0  0  0  0  0  0  0  0  0  0  0
    7.5678   -2.6755    0.0000 C   0  0  0  0  0  0  0  0  0  0  0  0
    6.1389   -2.6755    0.0000 C   0  0  0  0  0  0  0  0  0  0  0  0
    8.3054   -1.4094    0.0000 C   0  0  0  0  0  0  0  0  0  0  0  0
    6.8533   -3.0880    0.0000 C   0  0  0  0  0  0  0  0  0  0  0  0
    9.0529   -1.8334    0.0000 C   0  0  0  0  0  0  0  0  0  0  0  0
    9.0529   -2.6927    0.0000 C   0  0  0  0  0  0  0  0  0  0  0  0
 16  1  1  6
  2 27  1  0
  3 29  2  0
  4  6  1  0
  4 13  1  0
  5 24  1  0
  5 29  1  0
  6  7  1  0
  6  8  1  0
  7  9  1  0
  8 10  1  0
  9 10  2  0
  9 11  1  0
 10 12  1  0
 11 14  2  0
 12 15  2  0
 13 16  1  0
 14 15  1  0
 14 17  1  0
 15 18  1  0
 16 19  1  0
 17 21  1  0
 18 22  1  0
 19 20  1  0
 19 23  2  0
 20 24  2  0
 20 26  1  0
 23 25  1  0
 24 27  1  0
 25 27  2  0
 26 28  2  0
 28 29  1  0
M  END
$$$$
