
     RDKit          2D

 96103  0  0  0  0  0  0  0  0999 V2000
    3.0261    0.6252    0.0000 C   0  0  0  0  0  0  0  0  0  0  0  0
    1.8042   -4.1841    0.0000 C   0  0  0  0  0  0  0  0  0  0  0  0
    0.7423   -5.1402    0.0000 C   0  0  0  0  0  0  0  0  0  0  0  0
    2.6136   -0.0892    0.0000 C   0  0  0  0  0  0  0  0  0  0  0  0
   -3.6738   -6.8182    0.0000 C   0  0  0  0  0  0  0  0  0  0  0  0
   -2.8669   -6.9897    0.0000 C   0  0  0  0  0  0  0  0  0  0  0  0
   -3.9288   -6.0335    0.0000 C   0  0  0  0  0  0  0  0  0  0  0  0
    3.8492    4.8001    0.0000 C   0  0  0  0  0  0  0  0  0  0  0  0
    3.8492    5.6251    0.0000 C   0  0  0  0  0  0  0  0  0  0  0  0
    3.1632   -4.6257    0.0000 C   0  0  0  0  0  0  0  0  0  0  0  0
    5.2556   -2.4113    0.0000 C   0  0  0  0  0  0  0  0  0  0  0  0
   -2.3148   -6.3766    0.0000 C   0  0  0  0  0  0  0  0  0  0  0  0
   -3.3767   -5.4205    0.0000 C   0  0  0  0  0  0  0  0  0  0  0  0
    3.1347    4.3876    0.0000 C   0  0  0  0  0  0  0  0  0  0  0  0
    3.1347    6.0376    0.0000 C   0  0  0  0  0  0  0  0  0  0  0  0
    3.4182   -3.8410    0.0000 C   0  0  0  0  0  0  0  0  0  0  0  0
    5.0841   -1.6044    0.0000 C   0  0  0  0  0  0  0  0  0  0  0  0
   -3.1640    1.3337    0.0000 C   0  0  0  0  0  0  0  0  0  0  0  0
   -2.8669   -0.0640    0.0000 C   0  0  0  0  0  0  0  0  0  0  0  0
   -3.9709    1.1621    0.0000 C   0  0  0  0  0  0  0  0  0  0  0  0
   -3.6738   -0.2355    0.0000 C   0  0  0  0  0  0  0  0  0  0  0  0
   -3.5417    2.7623    0.0000 C   0  0  0  0  0  0  0  0  0  0  0  0
   -4.3621    2.8486    0.0000 C   0  0  0  0  0  0  0  0  0  0  0  0
    3.7153   -5.2387    0.0000 C   0  0  0  0  0  0  0  0  0  0  0  0
    4.5412   -2.8238    0.0000 C   0  0  0  0  0  0  0  0  0  0  0  0
    0.4452   -3.7425    0.0000 C   0  0  0  0  0  0  0  0  0  0  0  0
   -1.8049    0.8921    0.0000 C   0  0  0  0  0  0  0  0  0  0  0  0
    1.3807    3.7605    0.0000 C   0  0  0  0  0  0  0  0  0  0  0  0
   -1.0823    5.4283    0.0000 C   0  0  0  0  0  0  0  0  0  0  0  0
   -2.0177   -2.0748    0.0000 C   0  0  0  0  0  0  0  0  0  0  0  0
    1.1507    5.2126    0.0000 C   0  0  0  0  0  0  0  0  0  0  0  0
   -2.4548    5.9552    0.0000 C   0  0  0  0  0  0  0  0  0  0  0  0
   -2.0177   -4.9789    0.0000 C   0  0  0  0  0  0  0  0  0  0  0  0
   -1.7877   -3.5268    0.0000 C   0  0  0  0  0  0  0  0  0  0  0  0
    1.1679    0.7936    0.0000 C   0  0  0  0  0  0  0  0  0  0  0  0
   -2.1773    7.2609    0.0000 C   0  0  0  0  0  0  0  0  0  0  0  0
   -3.0573   -3.9393    0.0000 C   0  0  0  0  0  0  0  0  0  0  0  0
    0.9973   -4.3556    0.0000 C   0  0  0  0  0  0  0  0  0  0  0  0
   -2.6119    0.7206    0.0000 C   0  0  0  0  0  0  0  0  0  0  0  0
   -2.5698   -5.5920    0.0000 C   0  0  0  0  0  0  0  0  0  0  0  0
    1.6356    4.5452    0.0000 C   0  0  0  0  0  0  0  0  0  0  0  0
   -1.6343    6.0414    0.0000 C   0  0  0  0  0  0  0  0  0  0  0  0
   -2.2727   -2.8594    0.0000 C   0  0  0  0  0  0  0  0  0  0  0  0
   -4.2259    0.3775    0.0000 C   0  0  0  0  0  0  0  0  0  0  0  0
    2.4202    4.8001    0.0000 C   0  0  0  0  0  0  0  0  0  0  0  0
    2.4202    5.6251    0.0000 C   0  0  0  0  0  0  0  0  0  0  0  0
   -3.2061    3.5160    0.0000 C   0  0  0  0  0  0  0  0  0  0  0  0
    2.8662   -3.2279    0.0000 C   0  0  0  0  0  0  0  0  0  0  0  0
    0.7002   -2.9579    0.0000 C   0  0  0  0  0  0  0  0  0  0  0  0
   -1.2529    0.2790    0.0000 C   0  0  0  0  0  0  0  0  0  0  0  0
    0.5737    3.5890    0.0000 C   0  0  0  0  0  0  0  0  0  0  0  0
   -1.3372    4.6437    0.0000 C   0  0  0  0  0  0  0  0  0  0  0  0
   -1.2108   -1.9032    0.0000 C   0  0  0  0  0  0  0  0  0  0  0  0
    0.6159    1.4067    0.0000 C   0  0  0  0  0  0  0  0  0  0  0  0
    4.2636   -1.5181    0.0000 C   0  0  0  0  0  0  0  0  0  0  0  0
   -4.5337    3.6555    0.0000 C   0  0  0  0  0  0  0  0  0  0  0  0
   -2.3991    3.6875    0.0000 C   0  0  0  0  0  0  0  0  0  0  0  0
    1.5072   -2.7864    0.0000 C   0  0  0  0  0  0  0  0  0  0  0  0
   -1.5079   -0.5055    0.0000 C   0  0  0  0  0  0  0  0  0  0  0  0
    0.3188    2.8044    0.0000 C   0  0  0  0  0  0  0  0  0  0  0  0
   -0.7852    4.0306    0.0000 C   0  0  0  0  0  0  0  0  0  0  0  0
   -0.6587   -2.5163    0.0000 C   0  0  0  0  0  0  0  0  0  0  0  0
   -0.1910    1.2351    0.0000 C   0  0  0  0  0  0  0  0  0  0  0  0
    3.8511   -0.8036    0.0000 C   0  0  0  0  0  0  0  0  0  0  0  0
    3.1211   -2.4433    0.0000 C   0  0  0  0  0  0  0  0  0  0  0  0
    4.0124   -6.6365    0.0000 C   0  0  0  0  0  0  0  0  0  0  0  0
    4.8193   -6.4649    0.0000 N   0  0  0  0  0  0  0  0  0  0  0  0
    3.7574   -7.4211    0.0000 N   0  0  0  0  0  0  0  0  0  0  0  0
   -2.7904    6.7088    0.0000 N   0  0  0  0  0  0  0  0  0  0  0  0
    3.0261   -0.8036    0.0000 N   0  0  0  0  0  0  0  0  0  0  0  0
    3.4603   -6.0234    0.0000 N   0  0  0  0  0  0  0  0  0  0  0  0
    1.6356    5.8800    0.0000 N   0  0  0  0  0  0  0  0  0  0  0  0
   -1.4628    6.8484    0.0000 N   0  0  0  0  0  0  0  0  0  0  0  0
   -3.0573   -3.1143    0.0000 N   0  0  0  0  0  0  0  0  0  0  0  0
   -3.8192    4.0680    0.0000 N   0  0  0  0  0  0  0  0  0  0  0  0
    2.0592   -3.3995    0.0000 N   0  0  0  0  0  0  0  0  0  0  0  0
    0.1481   -2.3448    0.0000 N   0  0  0  0  0  0  0  0  0  0  0  0
   -0.4459    0.4505    0.0000 N   0  0  0  0  0  0  0  0  0  0  0  0
    0.0217    4.2021    0.0000 N   0  0  0  0  0  0  0  0  0  0  0  0
   -2.1442    4.4721    0.0000 N   0  0  0  0  0  0  0  0  0  0  0  0
   -0.9558   -1.1186    0.0000 N   0  0  0  0  0  0  0  0  0  0  0  0
    0.8708    2.1913    0.0000 N   0  0  0  0  0  0  0  0  0  0  0  0
   -2.2727   -4.1943    0.0000 N   0  0  0  0  0  0  0  0  0  0  0  0
    3.9281   -2.2718    0.0000 N   0  0  0  0  0  0  0  0  0  0  0  0
    1.9749    0.9651    0.0000 O   0  0  0  0  0  0  0  0  0  0  0  0
   -5.0328    0.2060    0.0000 O   0  0  0  0  0  0  0  0  0  0  0  0
   -5.2873    3.9911    0.0000 O   0  0  0  0  0  0  0  0  0  0  0  0
   -1.8471    3.0744    0.0000 O   0  0  0  0  0  0  0  0  0  0  0  0
    1.7621   -2.0017    0.0000 O   0  0  0  0  0  0  0  0  0  0  0  0
   -2.3148   -0.6770    0.0000 O   0  0  0  0  0  0  0  0  0  0  0  0
   -0.4881    2.6329    0.0000 O   0  0  0  0  0  0  0  0  0  0  0  0
   -1.0401    3.2460    0.0000 O   0  0  0  0  0  0  0  0  0  0  0  0
   -0.9137   -3.3010    0.0000 O   0  0  0  0  0  0  0  0  0  0  0  0
   -0.7430    1.8482    0.0000 O   0  0  0  0  0  0  0  0  0  0  0  0
    4.2636   -0.0892    0.0000 O   0  0  0  0  0  0  0  0  0  0  0  0
    2.5691   -1.8302    0.0000 O   0  0  0  0  0  0  0  0  0  0  0  0
  4  1  1  0
  6  5  2  0
  7  5  1  0
  9  8  2  0
 12  6  1  0
 13  7  2  0
 14  8  1  0
 15  9  1  0
 16 10  1  0
 17 11  1  0
 20 18  2  0
 21 19  1  0
 23 22  1  0
 24 10  1  0
 25 11  1  0
 38  2  1  0
 38  3  1  0
 38 26  1  0
 39 18  1  0
 39 19  2  0
 39 27  1  0
 40 12  2  0
 40 13  1  0
 40 33  1  0
 41 28  1  0
 41 31  2  0
 42 29  1  0
 42 32  2  0
 43 30  1  0
 43 34  2  0
 44 20  1  0
 44 21  2  0
 45 14  2  0
 45 41  1  0
 46 15  2  0
 46 45  1  0
 47 22  1  0
 48 16  1  6
 49 26  1  6
 50 27  1  6
 51 28  1  1
 52 29  1  1
 53 30  1  1
 54 35  1  1
 55 17  1  0
 56 23  1  0
 47 57  1  6
 58 49  1  0
 59 50  1  0
 60 51  1  0
 61 52  1  0
 62 53  1  0
 63 54  1  0
 55 64  1  6
 65 48  1  0
 67 66  2  3
 68 66  1  0
 69 32  1  0
 69 36  2  0
 70  4  1  0
 70 64  2  3
 71 24  1  0
 71 66  1  0
 72 31  1  0
 72 46  1  0
 73 36  1  0
 73 42  1  0
 74 37  2  0
 74 43  1  0
 75 47  1  0
 75 56  2  0
 48 76  1  0
 76 58  2  3
 49 77  1  0
 77 62  2  3
 50 78  1  0
 78 63  2  3
 51 79  1  0
 79 61  2  3
 52 80  1  0
 80 57  2  3
 53 81  1  0
 81 59  2  3
 54 82  1  0
 82 60  2  3
 83 33  1  0
 83 34  1  0
 83 37  1  0
 84 25  1  0
 84 55  1  0
 84 65  1  0
 85 35  1  0
 86 44  1  0
 87 56  1  0
 57 88  1  0
 58 89  1  0
 59 90  1  0
 60 91  1  0
 61 92  1  0
 62 93  1  0
 63 94  1  0
 95 64  1  0
 96 65  2  0
M  END
$$$$
