
     RDKit          2D

 36 39  0  0  1  0  0  0  0  0999 V2000
    5.8137   -0.8250    0.0000 S   0  0  0  0  0  0  0  0  0  0  0  0
    5.4012   -0.1106    0.0000 O   0  0  0  0  0  0  0  0  0  0  0  0
    6.2262   -1.5395    0.0000 O   0  0  0  0  0  0  0  0  0  0  0  0
    8.6717    0.8250    0.0000 O   0  0  0  0  0  0  0  0  0  0  0  0
    9.3861   -2.8876    0.0000 O   0  0  0  0  0  0  0  0  0  0  0  0
    2.2021   -1.1606    0.0000 N   0  0  0  0  0  0  0  0  0  0  0  0
    5.0993   -1.2375    0.0000 N   0  0  0  0  0  0  0  0  0  0  0  0
    9.3861   -0.4125    0.0000 N   0  0  0  0  0  0  0  0  0  0  0  0
   10.8812   -1.9014    0.0000 N   0  0  0  0  0  0  0  0  0  0  0  0
   11.3628   -1.2375    0.0000 N   0  0  0  0  0  0  0  0  0  0  0  0
    8.6717   -1.6500    0.0000 N   0  0  0  0  0  0  0  0  0  0  0  0
    2.9558   -0.8250    0.0000 C   0  0  0  0  0  0  0  0  0  0  0  0
    2.8696   -0.0045    0.0000 C   0  0  0  0  0  0  0  0  0  0  0  0
    2.0625    0.1670    0.0000 C   0  0  0  0  0  0  0  0  0  0  0  0
    1.6500   -0.5475    0.0000 C   0  0  0  0  0  0  0  0  0  0  0  0
    3.6703   -1.2375    0.0000 C   0  0  0  0  0  0  0  0  0  0  0  0
    4.3847   -0.8250    0.0000 C   0  0  0  0  0  0  0  0  0  0  0  0
    2.0305   -1.9676    0.0000 C   0  0  0  0  0  0  0  0  0  0  0  0
    6.5282   -0.4125    0.0000 C   0  0  0  0  0  0  0  0  0  0  0  0
    7.2427   -0.8250    0.0000 C   0  0  0  0  0  0  0  0  0  0  0  0
    7.9572   -0.4125    0.0000 C   0  0  0  0  0  0  0  0  0  0  0  0
    6.5282    0.4125    0.0000 C   0  0  0  0  0  0  0  0  0  0  0  0
   10.1006   -0.8250    0.0000 C   0  0  0  0  0  0  0  0  0  0  0  0
    8.6717   -0.8250    0.0000 C   0  0  0  0  0  0  0  0  0  0  0  0
    7.9572    0.4125    0.0000 C   0  0  0  0  0  0  0  0  0  0  0  0
   10.8812   -0.5736    0.0000 C   0  0  0  0  0  0  0  0  0  0  0  0
   10.1006   -1.6500    0.0000 C   0  0  0  0  0  0  0  0  0  0  0  0
    7.2427    0.8250    0.0000 C   0  0  0  0  0  0  0  0  0  0  0  0
   11.1376    0.2106    0.0000 C   0  0  0  0  0  0  0  0  0  0  0  0
    9.3861   -2.0625    0.0000 C   0  0  0  0  0  0  0  0  0  0  0  0
   11.9449    0.3807    0.0000 C   0  0  0  0  0  0  0  0  0  0  0  0
   11.1376   -2.6857    0.0000 C   0  0  0  0  0  0  0  0  0  0  0  0
    8.6717    1.6500    0.0000 C   0  0  0  0  0  0  0  0  0  0  0  0
   12.2012    1.1649    0.0000 C   0  0  0  0  0  0  0  0  0  0  0  0
    9.3861    2.0625    0.0000 C   0  0  0  0  0  0  0  0  0  0  0  0
    9.3861    2.8876    0.0000 C   0  0  0  0  0  0  0  0  0  0  0  0
  1  2  2  0
  1  3  2  0
  1  7  1  0
  1 19  1  0
  4 25  1  0
  4 33  1  0
  5 30  2  0
  6 12  1  0
  6 15  1  0
  6 18  1  0
  7 17  1  0
  8 23  1  0
  8 24  1  0
  9 10  1  0
  9 27  1  0
  9 32  1  0
 10 26  2  0
 11 24  2  0
 11 30  1  0
 12 13  1  0
 12 16  1  0
 13 14  1  0
 14 15  1  0
 16 17  1  0
 19 20  2  0
 19 22  1  0
 20 21  1  0
 21 24  1  0
 21 25  2  0
 22 28  2  0
 23 26  1  0
 23 27  2  0
 25 28  1  0
 26 29  1  0
 27 30  1  0
 29 31  1  0
 31 34  1  0
 33 35  1  0
 35 36  1  0
M  END
$$$$
