
     RDKit          2D

 26 28  0  0  0  0  0  0  0  0999 V2000
   -2.8271    1.3435    0.0000 C   0  0  0  0  0  0  0  0  0  0  0  0
   -1.6910    4.7042    0.0000 C   0  0  0  0  0  0  0  0  0  0  0  0
   -2.4980    4.8757    0.0000 C   0  0  0  0  0  0  0  0  0  0  0  0
   -1.4361    3.9196    0.0000 C   0  0  0  0  0  0  0  0  0  0  0  0
   -3.0500    4.2626    0.0000 C   0  0  0  0  0  0  0  0  0  0  0  0
    3.0993    2.0735    0.0000 C   0  0  0  0  0  0  0  0  0  0  0  0
    2.3848    0.8360    0.0000 C   0  0  0  0  0  0  0  0  0  0  0  0
    2.3848    2.4860    0.0000 C   0  0  0  0  0  0  0  0  0  0  0  0
    1.6704    1.2485    0.0000 C   0  0  0  0  0  0  0  0  0  0  0  0
    3.8138    0.8360    0.0000 C   0  0  0  0  0  0  0  0  0  0  0  0
    3.8138    0.0110    0.0000 C   0  0  0  0  0  0  0  0  0  0  0  0
   -1.1874    2.0735    0.0000 C   0  0  0  0  0  0  0  0  0  0  0  0
   -0.4730    2.4860    0.0000 C   0  0  0  0  0  0  0  0  0  0  0  0
    0.9559    2.4860    0.0000 C   0  0  0  0  0  0  0  0  0  0  0  0
   -2.6556    2.1504    0.0000 C   0  0  0  0  0  0  0  0  0  0  0  0
    3.0993    1.2485    0.0000 C   0  0  0  0  0  0  0  0  0  0  0  0
    1.6704    2.0735    0.0000 C   0  0  0  0  0  0  0  0  0  0  0  0
   -1.9019    2.4860    0.0000 C   0  0  0  0  0  0  0  0  0  0  0  0
   -1.9881    3.3065    0.0000 C   0  0  0  0  0  0  0  0  0  0  0  0
   -2.7951    3.4780    0.0000 C   0  0  0  0  0  0  0  0  0  0  0  0
    4.5282   -0.4014    0.0000 C   0  0  0  0  0  0  0  0  0  0  0  0
    0.2414    2.0735    0.0000 N   0  0  0  0  0  0  0  0  0  0  0  0
   -3.2076    2.7635    0.0000 N   0  0  0  0  0  0  0  0  0  0  0  0
    4.5282   -1.2264    0.0000 N   0  0  0  0  0  0  0  0  0  0  0  0
    5.2427    0.0110    0.0000 O   0  0  0  0  0  0  0  0  0  0  0  0
    5.2427   -1.6389    0.0000 O   0  0  0  0  0  0  0  0  0  0  0  0
  3  2  2  0
  4  2  1  0
  5  3  1  0
  8  6  2  0
  9  7  1  0
 11 10  2  0
 13 12  1  0
 15  1  1  0
 16  6  1  0
 16  7  2  0
 16 10  1  0
 17  8  1  0
 17  9  2  0
 17 14  1  0
 18 12  1  0
 18 15  2  0
 19  4  2  0
 19 18  1  0
 20  5  2  0
 20 19  1  0
 21 11  1  0
 22 13  1  0
 22 14  1  0
 23 15  1  0
 23 20  1  0
 24 21  2  3
 25 21  1  0
 24 26  1  0
M  END
$$$$
