
     RDKit          2D

 33 36  0  0  0  0  0  0  0  0999 V2000
   13.4062    6.2759    0.0000 C   0  0  0  0  0  0  0  0  0  0  0  0
   12.6918    5.8634    0.0000 C   0  0  0  0  0  0  0  0  0  0  0  0
   12.6918    5.0384    0.0000 C   0  0  0  0  0  0  0  0  0  0  0  0
   13.4062    4.6259    0.0000 C   0  0  0  0  0  0  0  0  0  0  0  0
   14.1207    5.0384    0.0000 C   0  0  0  0  0  0  0  0  0  0  0  0
   14.1207    5.8634    0.0000 C   0  0  0  0  0  0  0  0  0  0  0  0
   11.9773    4.6259    0.0000 C   0  0  0  0  0  0  0  0  0  0  0  0
   11.2628    5.0384    0.0000 C   0  0  0  0  0  0  0  0  0  0  0  0
   10.5484    4.6259    0.0000 C   0  0  0  0  0  0  0  0  0  0  0  0
   10.5484    3.8009    0.0000 C   0  0  0  0  0  0  0  0  0  0  0  0
   11.2628    3.3884    0.0000 C   0  0  0  0  0  0  0  0  0  0  0  0
   11.9773    3.8009    0.0000 C   0  0  0  0  0  0  0  0  0  0  0  0
   12.6918    3.3884    0.0000 O   0  0  0  0  0  0  0  0  0  0  0  0
   11.2628    2.5634    0.0000 N   0  0  0  0  0  0  0  0  0  0  0  0
   10.5484    2.1509    0.0000 N   0  0  0  0  0  0  0  0  0  0  0  0
   10.5484    1.3259    0.0000 C   0  0  0  0  0  0  0  0  0  0  0  0
    9.8809    0.8409    0.0000 C   0  0  0  0  0  0  0  0  0  0  0  0
   10.1359    0.0563    0.0000 N   0  0  0  0  0  0  0  0  0  0  0  0
   10.9609    0.0563    0.0000 N   0  0  0  0  0  0  0  0  0  0  0  0
   11.2158    0.8409    0.0000 C   0  0  0  0  0  0  0  0  0  0  0  0
    9.1665    1.2534    0.0000 C   0  0  0  0  0  0  0  0  0  0  0  0
   11.9303    1.2534    0.0000 O   0  0  0  0  0  0  0  0  0  0  0  0
   11.3734   -0.6581    0.0000 C   0  0  0  0  0  0  0  0  0  0  0  0
   12.0878   -0.2456    0.0000 C   0  0  0  0  0  0  0  0  0  0  0  0
   11.3734   -1.4831    0.0000 C   0  0  0  0  0  0  0  0  0  0  0  0
   12.0878   -1.8957    0.0000 C   0  0  0  0  0  0  0  0  0  0  0  0
   12.8023   -1.4831    0.0000 C   0  0  0  0  0  0  0  0  0  0  0  0
   12.8023   -0.6581    0.0000 C   0  0  0  0  0  0  0  0  0  0  0  0
   13.3857   -0.0748    0.0000 C   0  0  0  0  0  0  0  0  0  0  0  0
   13.5168   -1.8956    0.0000 C   0  0  0  0  0  0  0  0  0  0  0  0
   14.8352    4.6259    0.0000 C   0  0  0  0  0  0  0  0  0  0  0  0
   15.6321    4.8394    0.0000 O   0  0  0  0  0  0  0  0  0  0  0  0
   15.2477    3.9114    0.0000 O   0  0  0  0  0  0  0  0  0  0  0  0
  1  2  2  0
  2  3  1  0
  3  4  2  0
  4  5  1  0
  5  6  2  0
  1  6  1  0
  3  7  1  0
 12  7  1  0
  8  7  2  0
  8  9  1  0
  9 10  2  0
 10 11  1  0
 11 12  2  0
 12 13  1  0
 11 14  1  0
 14 15  1  0
 15 16  2  0
 16 17  1  0
 16 20  1  0
 17 18  2  0
 18 19  1  0
 19 20  1  0
 17 21  1  0
 20 22  2  0
 19 23  1  0
 24 23  2  0
 23 25  1  0
 25 26  2  0
 26 27  1  0
 27 28  2  0
 24 28  1  0
 28 29  1  0
 27 30  1  0
  5 31  1  0
 31 32  1  0
 31 33  2  0
M  END
$$$$
