
     RDKit          2D

 35 38  0  0  0  0  0  0  0  0999 V2000
    4.9441   -4.4555    0.0000 C   0  0  0  0  0  0  0  0  0  0  0  0
    4.9441   -3.6305    0.0000 C   0  0  0  0  0  0  0  0  0  0  0  0
    5.6585   -3.2180    0.0000 C   0  0  0  0  0  0  0  0  0  0  0  0
    5.6585   -2.3930    0.0000 C   0  0  0  0  0  0  0  0  0  0  0  0
    6.3730   -1.9805    0.0000 N   0  0  0  0  0  0  0  0  0  0  0  0
    7.0875   -2.3930    0.0000 C   0  0  0  0  0  0  0  0  0  0  0  0
    7.0875   -3.2180    0.0000 C   0  0  0  0  0  0  0  0  0  0  0  0
    7.8020   -3.6305    0.0000 C   0  0  0  0  0  0  0  0  0  0  0  0
    7.8020   -4.4555    0.0000 C   0  0  0  0  0  0  0  0  0  0  0  0
    6.3730   -1.1555    0.0000 C   0  0  0  0  0  0  0  0  0  0  0  0
    7.0875   -0.7430    0.0000 C   0  0  0  0  0  0  0  0  0  0  0  0
    7.0875    0.0820    0.0000 C   0  0  0  0  0  0  0  0  0  0  0  0
    7.8020    0.4945    0.0000 C   0  0  0  0  0  0  0  0  0  0  0  0
    8.5866    0.2395    0.0000 C   0  0  0  0  0  0  0  0  0  0  0  0
    9.0715    0.9070    0.0000 C   0  0  0  0  0  0  0  0  0  0  0  0
    9.8920    0.8207    0.0000 C   0  0  0  0  0  0  0  0  0  0  0  0
   10.2275    0.0671    0.0000 C   0  0  0  0  0  0  0  0  0  0  0  0
    9.7426   -0.6004    0.0000 C   0  0  0  0  0  0  0  0  0  0  0  0
    8.9221   -0.5141    0.0000 C   0  0  0  0  0  0  0  0  0  0  0  0
   11.0480   -0.0192    0.0000 Cl  0  0  0  0  0  0  0  0  0  0  0  0
    8.5866    1.5744    0.0000 C   0  0  0  0  0  0  0  0  0  0  0  0
    8.8415    2.3590    0.0000 C   0  0  0  0  0  0  0  0  0  0  0  0
    8.2895    2.9721    0.0000 C   0  0  0  0  0  0  0  0  0  0  0  0
    7.4825    2.8006    0.0000 C   0  0  0  0  0  0  0  0  0  0  0  0
    6.9305    3.4137    0.0000 C   0  0  0  0  0  0  0  0  0  0  0  0
    7.1854    4.1983    0.0000 C   0  0  0  0  0  0  0  0  0  0  0  0
    7.9924    4.3699    0.0000 C   0  0  0  0  0  0  0  0  0  0  0  0
    8.5444    3.7568    0.0000 C   0  0  0  0  0  0  0  0  0  0  0  0
    6.6334    4.8114    0.0000 Cl  0  0  0  0  0  0  0  0  0  0  0  0
    7.8020    1.3195    0.0000 C   0  0  0  0  0  0  0  0  0  0  0  0
    7.0875    1.7320    0.0000 C   0  0  0  0  0  0  0  0  0  0  0  0
    6.3730    1.3195    0.0000 C   0  0  0  0  0  0  0  0  0  0  0  0
    6.3730    0.4945    0.0000 C   0  0  0  0  0  0  0  0  0  0  0  0
    5.6585    1.7320    0.0000 Cl  0  0  0  0  0  0  0  0  0  0  0  0
    7.8020   -1.1555    0.0000 O   0  0  0  0  0  0  0  0  0  0  0  0
  1  2  1  0
  2  3  1  0
  3  4  1  0
  4  5  1  0
  5  6  1  0
  6  7  1  0
  7  8  1  0
  8  9  1  0
  5 10  1  0
 10 11  1  0
 11 12  1  0
 12 13  2  0
 13 14  1  0
 14 15  2  0
 15 16  1  0
 16 17  2  0
 17 18  1  0
 18 19  2  0
 14 19  1  0
 17 20  1  0
 15 21  1  0
 21 22  2  0
 22 23  1  0
 23 24  2  0
 24 25  1  0
 25 26  2  0
 26 27  1  0
 27 28  2  0
 23 28  1  0
 26 29  1  0
 21 30  1  0
 13 30  1  0
 30 31  2  0
 31 32  1  0
 32 33  2  0
 12 33  1  0
 32 34  1  0
 11 35  1  0
M  END
$$$$
