
     RDKit          2D

 21 24  0  0  0  0  0  0  0  0999 V2000
    3.5723   -4.1235    0.0000 C   0  0  0  0  0  0  0  0  0  0  0  0
    5.8459    0.0465    0.0000 C   0  0  0  0  0  0  0  0  0  0  0  0
    5.6713   -0.7598    0.0000 C   0  0  0  0  0  0  0  0  0  0  0  0
    5.2349    0.6008    0.0000 C   0  0  0  0  0  0  0  0  0  0  0  0
    4.8857   -1.0118    0.0000 C   0  0  0  0  0  0  0  0  0  0  0  0
    3.9277    0.9881    0.0000 C   0  0  0  0  0  0  0  0  0  0  0  0
    3.1028    0.9789    0.0000 C   0  0  0  0  0  0  0  0  0  0  0  0
    2.8349   -2.0691    0.0000 C   0  0  0  0  0  0  0  0  0  0  0  0
    4.2637   -2.0531    0.0000 C   0  0  0  0  0  0  0  0  0  0  0  0
    2.0847   -0.9051    0.0000 C   0  0  0  0  0  0  0  0  0  0  0  0
    2.8441   -2.8941    0.0000 C   0  0  0  0  0  0  0  0  0  0  0  0
    4.2729   -2.8781    0.0000 C   0  0  0  0  0  0  0  0  0  0  0  0
    1.4574   -0.3693    0.0000 C   0  0  0  0  0  0  0  0  0  0  0  0
    4.4493    0.3489    0.0000 C   0  0  0  0  0  0  0  0  0  0  0  0
    3.5447   -1.6487    0.0000 C   0  0  0  0  0  0  0  0  0  0  0  0
    4.2747   -0.4575    0.0000 C   0  0  0  0  0  0  0  0  0  0  0  0
    2.7882   -0.4741    0.0000 C   0  0  0  0  0  0  0  0  0  0  0  0
    2.5956    0.3281    0.0000 C   0  0  0  0  0  0  0  0  0  0  0  0
    3.5354   -0.8237    0.0000 C   0  0  0  0  0  0  0  0  0  0  0  0
    3.5631   -3.2985    0.0000 N   0  0  0  0  0  0  0  0  0  0  0  0
    1.7732    0.3929    0.0000 S   0  0  0  0  0  0  0  0  0  0  0  0
  3  2  2  0
  4  2  1  0
  5  3  1  0
  7  6  1  0
 11  8  1  0
 12  9  1  0
 13 10  2  0
 14  4  2  0
 14  6  1  0
 15  8  1  0
 15  9  1  0
 16  5  2  0
 16 14  1  0
 17 10  1  0
 18  7  1  0
 18 17  2  0
 19 15  2  0
 19 16  1  0
 19 17  1  0
 20  1  1  0
 20 11  1  0
 20 12  1  0
 21 13  1  0
 21 18  1  0
M  END
$$$$
