11243969
     RDKit          2D

 23 27  0  0  1  0  0  0  0  0999 V2000
    3.0303    2.1407    0.0000 O   0  0  0  0  0  0  0  0  0  0  0  0
    5.3140    0.5478    0.0000 O   0  0  0  0  0  0  0  0  0  0  0  0
    5.6838   -0.8325    0.0000 N   0  0  0  0  0  0  0  0  0  0  0  0
    4.0900   -1.2595    0.0000 N   0  0  0  0  0  0  0  0  0  0  0  0
    4.0846   -2.3965    0.0000 N   0  0  0  0  0  0  0  0  0  0  0  0
    3.7202    0.1208    0.0000 C   0  0  0  0  0  0  0  0  0  0  0  0
    3.0303    1.3157    0.0000 C   0  0  0  0  0  0  0  0  0  0  0  0
    2.4602   -0.2382    0.0000 C   0  0  0  0  0  0  0  0  0  0  0  0
    2.3404    0.1208    0.0000 C   0  0  0  0  0  0  0  0  0  0  0  0
    3.7202    0.9173    0.0000 C   0  0  0  0  0  0  0  0  0  0  0  0
    3.0303   -0.1291    0.0000 C   0  0  0  0  0  0  0  0  0  0  0  0
    3.2073   -0.6315    0.0000 C   0  0  0  0  0  0  0  0  0  0  0  0
    2.3404    0.9173    0.0000 C   0  0  0  0  0  0  0  0  0  0  0  0
    2.4602    0.6243    0.0000 C   0  0  0  0  0  0  0  0  0  0  0  0
    1.6500   -0.2775    0.0000 C   0  0  0  0  0  0  0  0  0  0  0  0
    4.3036   -0.4625    0.0000 C   0  0  0  0  0  0  0  0  0  0  0  0
    6.4987   -0.7033    0.0000 C   0  0  0  0  0  0  0  0  0  0  0  0
    6.8732   -1.4385    0.0000 C   0  0  0  0  0  0  0  0  0  0  0  0
    7.3230   -0.7464    0.0000 C   0  0  0  0  0  0  0  0  0  0  0  0
    6.2899   -2.0219    0.0000 C   0  0  0  0  0  0  0  0  0  0  0  0
    5.1004   -0.2491    0.0000 C   0  0  0  0  0  0  0  0  0  0  0  0
    5.5548   -1.6474    0.0000 C   0  0  0  0  0  0  0  0  0  0  0  0
    4.8197   -2.0219    0.0000 C   0  0  0  0  0  0  0  0  0  0  0  0
  1  7  1  0
  2 21  2  0
 17  3  1  0
  3 21  1  0
  3 22  1  0
 16  4  1  1
  5 23  3  0
  6 10  1  0
  6 11  1  0
  6 12  1  0
  6 16  1  0
  7 10  1  0
  7 13  1  0
  7 14  1  0
  8 12  1  0
  8 14  1  0
  8 15  1  0
  9 11  1  0
  9 13  1  0
  9 15  1  0
 16 21  1  0
 17 18  1  0
 17 19  1  1
 18 19  1  1
 18 20  1  0
 20 22  1  0
 22 23  1  1
M  END
$$$$
