
     RDKit          2D

 28 31  0  0  0  0  0  0  0  0999 V2000
    6.8513   -0.0000    0.0000 C   0  0  0  0  0  0  0  0  0  0  0  0
    4.7079   -2.8875    0.0000 C   0  0  0  0  0  0  0  0  0  0  0  0
    3.9934   -2.4750    0.0000 C   0  0  0  0  0  0  0  0  0  0  0  0
   -0.5989    3.7769    0.0000 C   0  0  0  0  0  0  0  0  0  0  0  0
   -0.0469    4.3900    0.0000 C   0  0  0  0  0  0  0  0  0  0  0  0
   -0.3440    2.9922    0.0000 C   0  0  0  0  0  0  0  0  0  0  0  0
    5.4223   -2.4750    0.0000 C   0  0  0  0  0  0  0  0  0  0  0  0
    3.9934   -1.6500    0.0000 C   0  0  0  0  0  0  0  0  0  0  0  0
    0.7179    2.0361    0.0000 C   0  0  0  0  0  0  0  0  0  0  0  0
    3.9934    0.8250    0.0000 C   0  0  0  0  0  0  0  0  0  0  0  0
    3.2789    1.2375    0.0000 C   0  0  0  0  0  0  0  0  0  0  0  0
    1.5249    1.8646    0.0000 C   0  0  0  0  0  0  0  0  0  0  0  0
    0.7601    4.2184    0.0000 C   0  0  0  0  0  0  0  0  0  0  0  0
    3.2789   -0.4125    0.0000 C   0  0  0  0  0  0  0  0  0  0  0  0
    0.4630    2.8207    0.0000 C   0  0  0  0  0  0  0  0  0  0  0  0
    3.9934    0.0000    0.0000 C   0  0  0  0  0  0  0  0  0  0  0  0
    2.5645    0.8250    0.0000 C   0  0  0  0  0  0  0  0  0  0  0  0
    5.4223   -1.6500    0.0000 C   0  0  0  0  0  0  0  0  0  0  0  0
    1.7798    1.0799    0.0000 C   0  0  0  0  0  0  0  0  0  0  0  0
    2.5645    0.0000    0.0000 C   0  0  0  0  0  0  0  0  0  0  0  0
    4.7079   -1.2375    0.0000 C   0  0  0  0  0  0  0  0  0  0  0  0
    6.1368   -1.2375    0.0000 C   0  0  0  0  0  0  0  0  0  0  0  0
    6.1368   -0.4125    0.0000 N   0  0  0  0  0  0  0  0  0  0  0  0
    1.0150    3.4338    0.0000 N   0  0  0  0  0  0  0  0  0  0  0  0
    1.2949    0.4125    0.0000 N   0  0  0  0  0  0  0  0  0  0  0  0
    1.7798   -0.2549    0.0000 N   0  0  0  0  0  0  0  0  0  0  0  0
    6.8513   -1.6500    0.0000 O   0  0  0  0  0  0  0  0  0  0  0  0
    4.7079   -0.4125    0.0000 S   0  0  0  0  0  0  0  0  0  0  0  0
  3  2  2  0
  5  4  2  0
  6  4  1  0
  7  2  1  0
  8  3  1  0
 11 10  2  0
 12  9  2  0
 13  5  1  0
 15  6  2  0
 15  9  1  0
 16 10  1  0
 16 14  2  0
 17 11  1  0
 18  7  2  0
 19 12  1  0
 19 17  2  0
 20 14  1  0
 20 17  1  0
 21  8  2  0
 21 18  1  0
 22 18  1  0
 23  1  1  0
 23 22  2  3
 24 13  2  0
 24 15  1  0
 25 19  1  0
 26 20  2  0
 26 25  1  0
 27 22  1  0
 28 16  1  0
 28 21  1  0
M  END
$$$$
