
     RDKit          2D

 27 30  0  0  0  0  0  0  0  0999 V2000
   -2.1447   -1.3411    0.0000 C   0  0  0  0  0  0  0  0  0  0  0  0
   -2.1447   -2.1661    0.0000 C   0  0  0  0  0  0  0  0  0  0  0  0
   -1.4302   -2.5787    0.0000 C   0  0  0  0  0  0  0  0  0  0  0  0
   -0.7157   -2.1661    0.0000 C   0  0  0  0  0  0  0  0  0  0  0  0
   -0.7157   -1.3411    0.0000 C   0  0  0  0  0  0  0  0  0  0  0  0
   -1.4302   -0.9285    0.0000 C   0  0  0  0  0  0  0  0  0  0  0  0
   -0.0011   -2.5787    0.0000 C   0  0  0  0  0  0  0  0  0  0  0  0
    0.7132   -2.1661    0.0000 C   0  0  0  0  0  0  0  0  0  0  0  0
    0.7132   -1.3411    0.0000 C   0  0  0  0  0  0  0  0  0  0  0  0
   -0.0011   -0.9285    0.0000 C   0  0  0  0  0  0  0  0  0  0  0  0
    1.4278   -0.9285    0.0000 C   0  0  0  0  0  0  0  0  0  0  0  0
    1.4278   -0.1035    0.0000 C   0  0  0  0  0  0  0  0  0  0  0  0
    0.7132    0.3089    0.0000 C   0  0  0  0  0  0  0  0  0  0  0  0
   -0.0011   -0.1035    0.0000 C   0  0  0  0  0  0  0  0  0  0  0  0
    2.8568   -0.9285    0.0000 C   0  0  0  0  0  0  0  0  0  0  0  0
    2.8568   -0.1035    0.0000 C   0  0  0  0  0  0  0  0  0  0  0  0
    2.1423    0.3089    0.0000 C   0  0  0  0  0  0  0  0  0  0  0  0
    2.1423    1.3412    0.0000 C   0  0  0  0  0  0  0  0  0  0  0  0
    2.8592    1.7551    0.0000 O   0  0  0  0  0  0  0  0  0  0  0  0
    1.4302    1.7524    0.0000 C   0  0  0  0  0  0  0  0  0  0  0  0
    0.7268    1.3462    0.0000 O   0  0  0  0  0  0  0  0  0  0  0  0
    0.0265    1.7505    0.0000 C   0  0  0  0  0  0  0  0  0  0  0  0
   -0.6751    1.3452    0.0000 C   0  0  0  0  0  0  0  0  0  0  0  0
    0.0264    2.5787    0.0000 O   0  0  0  0  0  0  0  0  0  0  0  0
   -2.8592   -2.5787    0.0000 O   0  0  0  0  0  0  0  0  0  0  0  0
    1.4278    0.7215    0.0000 C   0  0  0  0  0  0  0  0  0  0  0  0
   -0.7157   -0.5160    0.0000 C   0  0  0  0  0  0  0  0  0  0  0  0
  1  2  1  0
  2  3  1  0
  3  4  2  0
  4  5  1  0
  5  6  1  0
  1  6  1  0
  4  7  1  0
  7  8  1  0
  9  8  1  6
  9 10  1  0
  5 10  1  0
  9 11  1  0
 11 12  1  0
 12 13  1  0
 13 14  1  0
 10 14  1  1
 11 15  1  1
 15 16  1  0
 16 17  1  0
 12 17  1  0
 17 18  1  1
 18 19  2  0
 18 20  1  0
 20 21  1  0
 21 22  1  0
 22 23  1  0
 22 24  2  0
  2 25  2  0
 12 26  1  1
  5 27  1  1
M  END
$$$$
