
     RDKit          2D

 34 38  0  0  0  0  0  0  0  0999 V2000
   -4.3409   -1.4124    0.0000 C   0  0  0  0  0  0  0  0  0  0  0  0
   -3.9284   -0.6979    0.0000 O   0  0  0  0  0  0  0  0  0  0  0  0
   -3.1034   -0.6979    0.0000 C   0  0  0  0  0  0  0  0  0  0  0  0
   -2.6909    0.0165    0.0000 C   0  0  0  0  0  0  0  0  0  0  0  0
   -1.8659    0.0165    0.0000 C   0  0  0  0  0  0  0  0  0  0  0  0
   -1.4534   -0.6979    0.0000 C   0  0  0  0  0  0  0  0  0  0  0  0
   -1.8659   -1.4124    0.0000 C   0  0  0  0  0  0  0  0  0  0  0  0
   -2.6909   -1.4124    0.0000 C   0  0  0  0  0  0  0  0  0  0  0  0
   -0.6284   -0.6979    0.0000 C   0  0  0  0  0  0  0  0  0  0  0  0
   -0.1435   -1.3654    0.0000 C   0  0  0  0  0  0  0  0  0  0  0  0
    0.6411   -1.1104    0.0000 C   0  0  0  0  0  0  0  0  0  0  0  0
    0.6411   -0.2854    0.0000 C   0  0  0  0  0  0  0  0  0  0  0  0
   -0.1435   -0.0305    0.0000 S   0  0  0  0  0  0  0  0  0  0  0  0
    1.3556    0.1271    0.0000 C   0  0  0  0  0  0  0  0  0  0  0  0
    2.0701   -0.2854    0.0000 C   0  0  0  0  0  0  0  0  0  0  0  0
    2.0701   -1.1104    0.0000 C   0  0  0  0  0  0  0  0  0  0  0  0
    1.3556   -1.5229    0.0000 C   0  0  0  0  0  0  0  0  0  0  0  0
    2.7845    0.1271    0.0000 O   0  0  0  0  0  0  0  0  0  0  0  0
   -0.3984   -2.1500    0.0000 O   0  0  0  0  0  0  0  0  0  0  0  0
    0.1536   -2.7631    0.0000 C   0  0  0  0  0  0  0  0  0  0  0  0
    0.9606   -2.5916    0.0000 C   0  0  0  0  0  0  0  0  0  0  0  0
    1.5126   -3.2047    0.0000 C   0  0  0  0  0  0  0  0  0  0  0  0
    1.2577   -3.9893    0.0000 C   0  0  0  0  0  0  0  0  0  0  0  0
    0.4507   -4.1608    0.0000 C   0  0  0  0  0  0  0  0  0  0  0  0
   -0.1014   -3.5477    0.0000 C   0  0  0  0  0  0  0  0  0  0  0  0
    1.8097   -4.6024    0.0000 O   0  0  0  0  0  0  0  0  0  0  0  0
    1.5547   -5.3870    0.0000 C   0  0  0  0  0  0  0  0  0  0  0  0
    2.1068   -6.0001    0.0000 C   0  0  0  0  0  0  0  0  0  0  0  0
    2.9138   -5.8286    0.0000 N   0  0  0  0  0  0  0  0  0  0  0  0
    3.1687   -5.0439    0.0000 C   0  0  0  0  0  0  0  0  0  0  0  0
    3.9757   -4.8724    0.0000 C   0  0  0  0  0  0  0  0  0  0  0  0
    4.5277   -5.4855    0.0000 C   0  0  0  0  0  0  0  0  0  0  0  0
    4.2728   -6.2701    0.0000 C   0  0  0  0  0  0  0  0  0  0  0  0
    3.4658   -6.4417    0.0000 C   0  0  0  0  0  0  0  0  0  0  0  0
  1  2  1  0
  2  3  1  0
  3  4  2  0
  4  5  1  0
  5  6  2  0
  6  7  1  0
  7  8  2  0
  3  8  1  0
  6  9  1  0
  9 10  2  0
 10 11  1  0
 11 12  2  0
 12 13  1  0
  9 13  1  0
 12 14  1  0
 14 15  2  0
 15 16  1  0
 16 17  2  0
 11 17  1  0
 15 18  1  0
 10 19  1  0
 19 20  1  0
 20 21  2  0
 21 22  1  0
 22 23  2  0
 23 24  1  0
 24 25  2  0
 20 25  1  0
 23 26  1  0
 26 27  1  0
 27 28  1  0
 28 29  1  0
 29 30  1  0
 30 31  1  0
 31 32  1  0
 32 33  1  0
 33 34  1  0
 29 34  1  0
M  END
$$$$
