
     RDKit          2D

 35 39  0  0  0  0  0  0  0  0999 V2000
   -1.7866   -0.8220    0.0000 C   0  0  0  0  0  0  0  0  0  0  0  0
   -1.7866   -1.6470    0.0000 C   0  0  0  0  0  0  0  0  0  0  0  0
   -1.0746   -2.0552    0.0000 C   0  0  0  0  0  0  0  0  0  0  0  0
   -1.0746   -0.4053    0.0000 C   0  0  0  0  0  0  0  0  0  0  0  0
   -0.3627   -0.8220    0.0000 C   0  0  0  0  0  0  0  0  0  0  0  0
   -0.3662   -1.6470    0.0000 C   0  0  0  0  0  0  0  0  0  0  0  0
    0.3425   -2.0601    0.0000 C   0  0  0  0  0  0  0  0  0  0  0  0
    0.3495   -0.4102    0.0000 C   0  0  0  0  0  0  0  0  0  0  0  0
    1.0627   -0.8281    0.0000 C   0  0  0  0  0  0  0  0  0  0  0  0
    1.0589   -1.6555    0.0000 C   0  0  0  0  0  0  0  0  0  0  0  0
    1.7697   -2.0702    0.0000 C   0  0  0  0  0  0  0  0  0  0  0  0
    1.7773   -0.4153    0.0000 C   0  0  0  0  0  0  0  0  0  0  0  0
    2.4925   -0.8347    0.0000 C   0  0  0  0  0  0  0  0  0  0  0  0
    2.4879   -1.6638    0.0000 C   0  0  0  0  0  0  0  0  0  0  0  0
    3.1996   -2.0799    0.0000 C   0  0  0  0  0  0  0  0  0  0  0  0
    3.9205   -1.6717    0.0000 C   0  0  0  0  0  0  0  0  0  0  0  0
    3.9251   -0.8427    0.0000 C   0  0  0  0  0  0  0  0  0  0  0  0
    3.2090   -0.4217    0.0000 C   0  0  0  0  0  0  0  0  0  0  0  0
   -1.7908   -2.4719    0.0000 N   0  0  0  0  0  0  0  0  0  0  0  0
   -2.5865   -1.4303    0.0000 C   0  0  0  0  0  0  0  0  0  0  0  0
   -2.7978   -0.6328    0.0000 O   0  0  0  0  0  0  0  0  0  0  0  0
   -3.1713   -2.0120    0.0000 C   0  0  0  0  0  0  0  0  0  0  0  0
   -1.0746    0.4194    0.0000 O   0  0  0  0  0  0  0  0  0  0  0  0
   -1.7891    0.8320    0.0000 C   0  0  0  0  0  0  0  0  0  0  0  0
   -1.7852    1.6579    0.0000 C   0  0  0  0  0  0  0  0  0  0  0  0
   -2.4955    2.0702    0.0000 C   0  0  0  0  0  0  0  0  0  0  0  0
   -3.2124    1.6613    0.0000 C   0  0  0  0  0  0  0  0  0  0  0  0
   -3.2143    0.8354    0.0000 C   0  0  0  0  0  0  0  0  0  0  0  0
   -2.4994    0.4183    0.0000 O   0  0  0  0  0  0  0  0  0  0  0  0
   -3.9251    2.0764    0.0000 O   0  0  0  0  0  0  0  0  0  0  0  0
   -2.4923    2.8952    0.0000 O   0  0  0  0  0  0  0  0  0  0  0  0
    0.3519    0.4145    0.0000 O   0  0  0  0  0  0  0  0  0  0  0  0
    0.3368   -2.8851    0.0000 O   0  0  0  0  0  0  0  0  0  0  0  0
    1.7800    0.4094    0.0000 O   0  0  0  0  0  0  0  0  0  0  0  0
    1.7642   -2.8952    0.0000 O   0  0  0  0  0  0  0  0  0  0  0  0
 14 15  2  0
 15 16  1  0
 16 17  2  0
 17 18  1  0
  9  8  2  0
  2 19  1  6
  9 10  1  0
  2 20  1  0
  3  6  1  0
 20 21  2  0
  5  4  1  0
 20 22  1  0
  5  6  2  0
  4 23  1  6
 24 23  1  6
 24 25  1  0
  9 12  1  0
 10 11  1  0
 11 14  1  0
 13 12  1  0
 13 14  1  0
 24 29  1  0
 25 26  1  0
 26 27  1  0
 27 28  1  0
 28 29  1  0
  1  2  1  0
 27 30  1  1
  1  4  1  0
 26 31  1  1
  2  3  1  0
  5  8  1  0
  8 32  1  0
  6  7  1  0
  7 33  1  0
  7 10  2  0
 12 34  2  0
 13 18  2  0
 11 35  2  0
M  END
$$$$
