
     RDKit          2D

 20 19  0  0  0  0  0  0  0  0999 V2000
   11.3365   -9.5098    0.0000 C   0  0  0  0  0  0  0  0  0  0  0  0
   12.0496   -9.9245    0.0000 C   0  0  0  0  0  0  0  0  0  0  0  0
   10.6234   -9.9245    0.0000 C   0  0  0  0  0  0  0  0  0  0  0  0
   12.7663   -9.5098    0.0000 C   0  0  0  0  0  0  0  0  0  0  0  0
    9.9066   -9.5098    0.0000 C   0  0  0  0  0  0  0  0  0  0  0  0
   13.5922   -9.5098    0.0000 C   0  0  0  0  0  0  0  0  0  0  0  0
    9.1972   -9.9245    0.0000 C   0  0  0  0  0  0  0  0  0  0  0  0
   14.3054   -9.9245    0.0000 C   0  0  0  0  0  0  0  0  0  0  0  0
    8.4839   -9.5098    0.0000 C   0  0  0  0  0  0  0  0  0  0  0  0
   15.0185   -9.5098    0.0000 C   0  0  0  0  0  0  0  0  0  0  0  0
    7.7709   -9.9245    0.0000 C   0  0  0  0  0  0  0  0  0  0  0  0
   15.7352   -9.9245    0.0000 C   0  0  0  0  0  0  0  0  0  0  0  0
    7.0578   -9.5098    0.0000 C   0  0  0  0  0  0  0  0  0  0  0  0
   16.4447   -9.5098    0.0000 C   0  0  0  0  0  0  0  0  0  0  0  0
    6.3446   -9.9245    0.0000 O   0  0  0  0  0  0  0  0  0  0  0  0
    7.0578   -8.6838    0.0000 O   0  0  0  0  0  0  0  0  0  0  0  0
   17.1579   -9.9245    0.0000 C   0  0  0  0  0  0  0  0  0  0  0  0
   17.8710   -9.5098    0.0000 C   0  0  0  0  0  0  0  0  0  0  0  0
   18.5840   -9.9245    0.0000 C   0  0  0  0  0  0  0  0  0  0  0  0
   19.2972   -9.5098    0.0000 C   0  0  0  0  0  0  0  0  0  0  0  0
  1  2  1  0
  1  3  1  0
  2  4  1  0
  3  5  1  0
  4  6  2  0
  5  7  1  0
  6  8  1  0
  7  9  1  0
  8 10  1  0
  9 11  1  0
 10 12  1  0
 11 13  1  0
 12 14  1  0
 13 15  1  0
 13 16  2  0
 14 17  1  0
 17 18  1  0
 18 19  1  0
 19 20  1  0
M  END
$$$$
