 
     RDKit          2D

 73 76  0  0  1  0  0  0  0  0999 V2000
   14.8928  -15.2264    0.0000 N   0  0  0  0  0  0  0  0  0  0  0  0
   15.5940  -14.8140    0.0000 C   0  0  0  0  0  0  0  0  0  0  0  0
   14.8928  -16.0514    0.0000 C   0  0  0  0  0  0  0  0  0  0  0  0
   14.1502  -14.8140    0.0000 C   0  0  0  0  0  0  0  0  0  0  0  0
   16.2952  -15.2264    0.0000 C   0  0  0  0  0  0  0  0  0  0  0  0
   15.5940  -13.9890    0.0000 C   0  0  0  0  0  0  0  0  0  0  0  0
   14.1502  -16.4640    0.0000 C   0  0  0  0  0  0  0  0  0  0  0  0
   15.5940  -16.4640    0.0000 O   0  0  0  0  0  0  0  0  0  0  0  0
   14.1502  -13.9890    0.0000 C   0  0  0  0  0  0  0  0  0  0  0  0
   16.9964  -14.8140    0.0000 O   0  0  0  0  0  0  0  0  0  0  0  0
   16.2952  -15.8865    0.0000 O   0  0  0  0  0  0  0  0  0  0  0  0
   14.8928  -13.5352    0.0000 C   0  0  0  0  0  0  0  0  0  0  0  0
   14.1502  -17.2889    0.0000 C   0  0  0  0  0  0  0  0  0  0  0  0
   13.4490  -16.0102    0.0000 O   0  0  0  0  0  0  0  0  0  0  0  0
   17.7389  -15.2264    0.0000 C   0  0  0  0  0  0  0  0  0  0  0  0
   14.8515  -17.7014    0.0000 O   0  0  0  0  0  0  0  0  0  0  0  0
   13.4077  -17.7014    0.0000 C   0  0  0  0  0  0  0  0  0  0  0  0
   13.9852  -18.1139    0.0000 O   0  0  0  0  0  0  0  0  0  0  0  0
   18.4402  -14.8140    0.0000 C   0  0  0  0  0  0  0  0  0  0  0  0
   17.7389  -16.0514    0.0000 C   0  0  0  0  0  0  0  0  0  0  0  0
   14.8515  -18.5264    0.0000 C   0  0  0  0  0  0  0  0  0  0  0  0
   13.4077  -18.4852    0.0000 C   0  0  0  0  0  0  0  0  0  0  0  0
   12.7065  -17.2476    0.0000 C   0  0  0  0  0  0  0  0  0  0  0  0
   19.1827  -15.2264    0.0000 C   0  0  0  0  0  0  0  0  0  0  0  0
   18.4402  -13.9890    0.0000 C   0  0  0  0  0  0  0  0  0  0  0  0
   18.4402  -16.4640    0.0000 C   0  0  0  0  0  0  0  0  0  0  0  0
   15.5527  -18.9389    0.0000 C   0  0  0  0  0  0  0  0  0  0  0  0
   14.1502  -18.9389    0.0000 C   0  0  0  0  0  0  0  0  0  0  0  0
   19.8840  -14.8140    0.0000 C   0  0  0  0  0  0  0  0  0  0  0  0
   18.4402  -17.2889    0.0000 C   0  0  0  0  0  0  0  0  0  0  0  0
   19.1827  -16.0102    0.0000 O   0  0  0  0  0  0  0  0  0  0  0  0
   15.5527  -19.7639    0.0000 C   0  0  0  0  0  0  0  0  0  0  0  0
   20.5852  -15.2264    0.0000 C   0  0  0  0  0  0  0  0  0  0  0  0
   19.8840  -13.9890    0.0000 C   0  0  0  0  0  0  0  0  0  0  0  0
   19.1827  -17.7014    0.0000 C   0  0  0  0  0  0  0  0  0  0  0  0
   17.7389  -17.7014    0.0000 C   0  0  0  0  0  0  0  0  0  0  0  0
   16.2539  -20.1764    0.0000 C   0  0  0  0  0  0  0  0  0  0  0  0
   14.8515  -20.1764    0.0000 O   0  0  0  0  0  0  0  0  0  0  0  0
   21.2864  -14.8140    0.0000 C   0  0  0  0  0  0  0  0  0  0  0  0
   20.5852  -13.5764    0.0000 C   0  0  0  0  0  0  0  0  0  0  0  0
   19.1827  -18.4852    0.0000 C   0  0  0  0  0  0  0  0  0  0  0  0
   16.2539  -21.0014    0.0000 C   0  0  0  0  0  0  0  0  0  0  0  0
   16.9964  -19.7639    0.0000 C   0  0  0  0  0  0  0  0  0  0  0  0
   14.8515  -21.0014    0.0000 C   0  0  0  0  0  0  0  0  0  0  0  0
   21.2864  -13.9890    0.0000 C   0  0  0  0  0  0  0  0  0  0  0  0
   22.0289  -15.2264    0.0000 O   0  0  0  0  0  0  0  0  0  0  0  0
   19.8840  -18.8976    0.0000 C   0  0  0  0  0  0  0  0  0  0  0  0
   18.4402  -18.8976    0.0000 C   0  0  0  0  0  0  0  0  0  0  0  0
   16.9552  -21.4139    0.0000 C   0  0  0  0  0  0  0  0  0  0  0  0
   22.0289  -13.5352    0.0000 O   0  0  0  0  0  0  0  0  0  0  0  0
   19.8840  -19.7226    0.0000 C   0  0  0  0  0  0  0  0  0  0  0  0
   20.5852  -18.4852    0.0000 O   0  0  0  0  0  0  0  0  0  0  0  0
   16.9552  -22.2389    0.0000 C   0  0  0  0  0  0  0  0  0  0  0  0
   20.5852  -20.1352    0.0000 C   0  0  0  0  0  0  0  0  0  0  0  0
   19.1415  -20.1352    0.0000 O   0  0  0  0  0  0  0  0  0  0  0  0
   17.6977  -22.6514    0.0000 C   0  0  0  0  0  0  0  0  0  0  0  0
   20.5852  -20.9602    0.0000 C   0  0  0  0  0  0  0  0  0  0  0  0
   21.2864  -19.7226    0.0000 O   0  0  0  0  0  0  0  0  0  0  0  0
   19.1415  -20.9602    0.0000 C   0  0  0  0  0  0  0  0  0  0  0  0
   18.3990  -22.2389    0.0000 C   0  0  0  0  0  0  0  0  0  0  0  0
   19.8840  -21.3726    0.0000 C   0  0  0  0  0  0  0  0  0  0  0  0
   21.2864  -21.3726    0.0000 C   0  0  0  0  0  0  0  0  0  0  0  0
   19.2240  -22.2389    0.0000 C   0  0  0  0  0  0  0  0  0  0  0  0
   19.4302  -23.0226    0.0000 C   0  0  0  0  0  0  0  0  0  0  0  0
   22.7652  -13.9362    0.0000 C   0  0  0  0  0  0  0  0  0  0  0  0
   23.4766  -13.5013    0.0000 C   0  0  0  0  0  0  0  0  0  0  0  0
   22.0289  -16.0520    0.0000 C   0  0  0  0  0  0  0  0  0  0  0  0
   22.7859  -14.7770    0.0000 O   0  0  0  0  0  0  0  0  0  0  0  0
   24.2076  -13.8992    0.0000 C   0  0  0  0  0  0  0  0  0  0  0  0
   23.4557  -12.6725    0.0000 C   0  0  0  0  0  0  0  0  0  0  0  0
   24.1897  -12.9002    0.0000 C   0  0  0  0  0  0  0  0  0  0  0  0
   24.8928  -13.4803    0.0000 O   0  0  0  0  0  0  0  0  0  0  0  0
   24.1525  -12.2464    0.0000 O   0  0  0  0  0  0  0  0  0  0  0  0
  1  2  1  0
  1  3  1  0
  1  4  1  0
  2  5  1  0
  2  6  1  1
  3  7  1  0
  3  8  2  0
  4  9  1  0
  5 10  1  0
  5 11  2  0
  6 12  1  0
  7 13  1  0
  7 14  2  0
 10 15  1  0
 13 16  1  0
 13 17  1  0
 13 18  1  1
 15 19  1  0
 15 20  1  6
 21 16  1  0
 17 22  1  0
 17 23  1  1
 19 24  1  0
 19 25  1  6
 20 26  1  0
 21 27  1  6
 21 28  1  0
 29 24  1  6
 26 30  1  0
 26 31  2  0
 27 32  1  0
 29 33  1  0
 29 34  1  0
 30 35  1  0
 30 36  1  1
 32 37  1  0
 32 38  1  1
 33 39  1  0
 34 40  1  0
 35 41  2  0
 37 42  2  0
 37 43  1  0
 38 44  1  0
 39 45  1  0
 39 46  1  6
 41 47  1  0
 41 48  1  0
 42 49  1  0
 45 50  1  1
 47 51  1  0
 47 52  1  1
 49 53  2  0
 51 54  1  0
 51 55  1  6
 53 56  1  0
 54 57  1  0
 54 58  2  0
 55 59  1  0
 56 60  2  0
 57 61  1  0
 57 62  1  6
 60 63  1  0
 63 64  1  6
  9 12  1  0
 22 28  1  0
 40 45  1  0
 61 63  1  0
 50 65  1  0
 65 66  1  0
 46 67  1  0
 65 68  2  0
 66 69  1  0
 66 70  1  0
 66 71  1  0
 69 72  1  0
 70 73  1  0
M  END
$$$$
