
     RDKit          2D

 28 30  0  0  0  0  0  0  0  0999 V2000
    6.1792  -24.6708    0.0000 C   0  0  0  0  0  0  0  0  0  0  0  0
    6.1792  -25.4958    0.0000 C   0  0  0  0  0  0  0  0  0  0  0  0
    6.8912  -25.9042    0.0000 C   0  0  0  0  0  0  0  0  0  0  0  0
    7.6032  -25.4958    0.0000 C   0  0  0  0  0  0  0  0  0  0  0  0
    7.6032  -24.6708    0.0000 C   0  0  0  0  0  0  0  0  0  0  0  0
    6.8912  -24.2542    0.0000 O   0  0  0  0  0  0  0  0  0  0  0  0
    8.3189  -24.2604    0.0000 C   0  0  0  0  0  0  0  0  0  0  0  0
    5.4635  -24.2604    0.0000 C   0  0  0  0  0  0  0  0  0  0  0  0
    8.3171  -25.9094    0.0000 O   0  0  0  0  0  0  0  0  0  0  0  0
    5.4653  -25.9094    0.0000 O   0  0  0  0  0  0  0  0  0  0  0  0
    6.8912  -26.7291    0.0000 O   0  0  0  0  0  0  0  0  0  0  0  0
    5.4611  -23.4354    0.0000 O   0  0  0  0  0  0  0  0  0  0  0  0
    9.0288  -24.6788    0.0000 C   0  0  0  0  0  0  0  0  0  0  0  0
    9.7439  -24.2691    0.0000 C   0  0  0  0  0  0  0  0  0  0  0  0
    9.7468  -23.4432    0.0000 C   0  0  0  0  0  0  0  0  0  0  0  0
    9.0285  -23.0288    0.0000 C   0  0  0  0  0  0  0  0  0  0  0  0
    8.3163  -23.4409    0.0000 C   0  0  0  0  0  0  0  0  0  0  0  0
   10.4619  -23.0319    0.0000 Cl  0  0  0  0  0  0  0  0  0  0  0  0
   10.4570  -24.6840    0.0000 C   0  0  0  0  0  0  0  0  0  0  0  0
   11.1729  -24.2740    0.0000 C   0  0  0  0  0  0  0  0  0  0  0  0
   11.8817  -24.6920    0.0000 C   0  0  0  0  0  0  0  0  0  0  0  0
   12.5971  -24.2826    0.0000 C   0  0  0  0  0  0  0  0  0  0  0  0
   12.6004  -23.4568    0.0000 C   0  0  0  0  0  0  0  0  0  0  0  0
   11.8823  -23.0420    0.0000 C   0  0  0  0  0  0  0  0  0  0  0  0
   11.1698  -23.4538    0.0000 C   0  0  0  0  0  0  0  0  0  0  0  0
   13.3157  -23.0458    0.0000 O   0  0  0  0  0  0  0  0  0  0  0  0
   14.0293  -23.4598    0.0000 C   0  0  0  0  0  0  0  0  0  0  0  0
   14.7446  -23.0488    0.0000 C   0  0  0  0  0  0  0  0  0  0  0  0
 13 14  2  0
  5  7  1  1
 14 15  1  0
  1  2  1  0
 15 16  2  0
  1  8  1  1
 16 17  1  0
 17  7  2  0
  1  6  1  0
 15 18  1  0
  4  9  1  6
 14 19  1  0
  2  3  1  0
 19 20  1  0
  2 10  1  6
 20 21  2  0
  3  4  1  0
 21 22  1  0
  3 11  1  1
 22 23  2  0
  4  5  1  0
 23 24  1  0
  8 12  1  0
 24 25  2  0
 25 20  1  0
  5  6  1  0
 23 26  1  0
  7 13  1  0
 26 27  1  0
 27 28  1  0
M  END
$$$$
