
     RDKit          2D

128136  0  0  0  0  0  0  0  0999 V2000
   -0.2474    1.2194    0.0000 C   0  0  0  0  0  0  0  0  0  0  0  0
    1.7953    0.0943    0.0000 C   0  0  0  0  0  0  0  0  0  0  0  0
   -6.1229    4.9764    0.0000 C   0  0  0  0  0  0  0  0  0  0  0  0
    1.5738    2.7467    0.0000 C   0  0  0  0  0  0  0  0  0  0  0  0
   -1.5776   -2.7257    0.0000 C   0  0  0  0  0  0  0  0  0  0  0  0
    6.1229   -4.9764    0.0000 C   0  0  0  0  0  0  0  0  0  0  0  0
   -1.9303   -0.0645    0.0000 C   0  0  0  0  0  0  0  0  0  0  0  0
    0.2749   -1.0876    0.0000 C   0  0  0  0  0  0  0  0  0  0  0  0
   -0.9957    1.4348    0.0000 C   0  0  0  0  0  0  0  0  0  0  0  0
    1.5694    0.8398    0.0000 C   0  0  0  0  0  0  0  0  0  0  0  0
   -5.8170    4.1928    0.0000 C   0  0  0  0  0  0  0  0  0  0  0  0
    2.0991    2.1100    0.0000 C   0  0  0  0  0  0  0  0  0  0  0  0
   -2.1027   -2.0946    0.0000 C   0  0  0  0  0  0  0  0  0  0  0  0
    5.8170   -4.1928    0.0000 C   0  0  0  0  0  0  0  0  0  0  0  0
   -1.5704   -0.7728    0.0000 C   0  0  0  0  0  0  0  0  0  0  0  0
    0.9015   -1.4883    0.0000 C   0  0  0  0  0  0  0  0  0  0  0  0
   -0.9910    2.9536    0.0000 C   0  0  0  0  0  0  0  0  0  0  0  0
    1.4706    2.2508    0.0000 C   0  0  0  0  0  0  0  0  0  0  0  0
   -4.5543    3.3385    0.0000 C   0  0  0  0  0  0  0  0  0  0  0  0
    3.0420    0.9240    0.0000 C   0  0  0  0  0  0  0  0  0  0  0  0
   -3.0017   -0.9003    0.0000 C   0  0  0  0  0  0  0  0  0  0  0  0
    4.5543   -3.3383    0.0000 C   0  0  0  0  0  0  0  0  0  0  0  0
   -1.4792   -2.2269    0.0000 C   0  0  0  0  0  0  0  0  0  0  0  0
    0.9926   -3.0116    0.0000 C   0  0  0  0  0  0  0  0  0  0  0  0
   -0.3253    3.4135    0.0000 C   0  0  0  0  0  0  0  0  0  0  0  0
    2.1836    2.6438    0.0000 C   0  0  0  0  0  0  0  0  0  0  0  0
   -3.7521    3.0616    0.0000 C   0  0  0  0  0  0  0  0  0  0  0  0
    3.4135    0.3253    0.0000 C   0  0  0  0  0  0  0  0  0  0  0  0
   -3.4135   -0.3253    0.0000 C   0  0  0  0  0  0  0  0  0  0  0  0
    3.7521   -3.0616    0.0000 C   0  0  0  0  0  0  0  0  0  0  0  0
   -2.1836   -2.6438    0.0000 C   0  0  0  0  0  0  0  0  0  0  0  0
    0.3253   -3.4135    0.0000 C   0  0  0  0  0  0  0  0  0  0  0  0
   -0.4270    0.2895    0.0000 C   0  0  0  0  0  0  0  0  0  0  0  0
    2.4807   -0.2910    0.0000 C   0  0  0  0  0  0  0  0  0  0  0  0
   -6.9548    5.0974    0.0000 C   0  0  0  0  0  0  0  0  0  0  0  0
    0.8647    2.2926    0.0000 C   0  0  0  0  0  0  0  0  0  0  0  0
   -0.8761   -2.2739    0.0000 C   0  0  0  0  0  0  0  0  0  0  0  0
    6.9547   -5.0974    0.0000 C   0  0  0  0  0  0  0  0  0  0  0  0
   -2.5586    0.5264    0.0000 C   0  0  0  0  0  0  0  0  0  0  0  0
    0.4963   -0.2590    0.0000 C   0  0  0  0  0  0  0  0  0  0  0  0
   -0.4882    4.8181    0.0000 C   0  0  0  0  0  0  0  0  0  0  0  0
   -2.6438    2.1836    0.0000 C   0  0  0  0  0  0  0  0  0  0  0  0
    3.0616    3.7521    0.0000 C   0  0  0  0  0  0  0  0  0  0  0  0
   -4.8181   -0.4882    0.0000 C   0  0  0  0  0  0  0  0  0  0  0  0
    4.8181    0.4882    0.0000 C   0  0  0  0  0  0  0  0  0  0  0  0
   -3.0616   -3.7521    0.0000 C   0  0  0  0  0  0  0  0  0  0  0  0
    2.6438   -2.1836    0.0000 C   0  0  0  0  0  0  0  0  0  0  0  0
    0.4882   -4.8181    0.0000 C   0  0  0  0  0  0  0  0  0  0  0  0
    0.3284    4.9125    0.0000 C   0  0  0  0  0  0  0  0  0  0  0  0
   -2.1380    2.8210    0.0000 C   0  0  0  0  0  0  0  0  0  0  0  0
    3.7060    3.2413    0.0000 C   0  0  0  0  0  0  0  0  0  0  0  0
   -4.9125    0.3284    0.0000 C   0  0  0  0  0  0  0  0  0  0  0  0
    4.9125   -0.3284    0.0000 C   0  0  0  0  0  0  0  0  0  0  0  0
   -3.7059   -3.2413    0.0000 C   0  0  0  0  0  0  0  0  0  0  0  0
    2.1380   -2.8210    0.0000 C   0  0  0  0  0  0  0  0  0  0  0  0
   -0.3284   -4.9125    0.0000 C   0  0  0  0  0  0  0  0  0  0  0  0
   -0.8307    4.0656    0.0000 C   0  0  0  0  0  0  0  0  0  0  0  0
    2.2874    3.4622    0.0000 C   0  0  0  0  0  0  0  0  0  0  0  0
   -3.4622    2.2874    0.0000 C   0  0  0  0  0  0  0  0  0  0  0  0
    4.0656    0.8307    0.0000 C   0  0  0  0  0  0  0  0  0  0  0  0
   -4.0656   -0.8307    0.0000 C   0  0  0  0  0  0  0  0  0  0  0  0
    3.4622   -2.2874    0.0000 C   0  0  0  0  0  0  0  0  0  0  0  0
   -2.2874   -3.4622    0.0000 C   0  0  0  0  0  0  0  0  0  0  0  0
    0.8307   -4.0656    0.0000 C   0  0  0  0  0  0  0  0  0  0  0  0
    0.8329    4.2524    0.0000 C   0  0  0  0  0  0  0  0  0  0  0  0
   -2.4179    3.5959    0.0000 C   0  0  0  0  0  0  0  0  0  0  0  0
    3.5959    2.4179    0.0000 C   0  0  0  0  0  0  0  0  0  0  0  0
   -4.2524    0.8329    0.0000 C   0  0  0  0  0  0  0  0  0  0  0  0
    4.2524   -0.8329    0.0000 C   0  0  0  0  0  0  0  0  0  0  0  0
   -3.5959   -2.4179    0.0000 C   0  0  0  0  0  0  0  0  0  0  0  0
    2.4179   -3.5959    0.0000 C   0  0  0  0  0  0  0  0  0  0  0  0
   -0.8329   -4.2524    0.0000 C   0  0  0  0  0  0  0  0  0  0  0  0
   -0.0637   -0.3993    0.0000 O   0  0  0  0  0  0  0  0  0  0  0  0
   -1.1631   -0.0129    0.0000 O   0  0  0  0  0  0  0  0  0  0  0  0
    3.1924   -0.1249    0.0000 O   0  0  0  0  0  0  0  0  0  0  0  0
    2.5131   -1.0219    0.0000 O   0  0  0  0  0  0  0  0  0  0  0  0
   -7.5234    4.4867    0.0000 O   0  0  0  0  0  0  0  0  0  0  0  0
   -7.2399    5.8767    0.0000 O   0  0  0  0  0  0  0  0  0  0  0  0
    0.6556    1.4650    0.0000 O   0  0  0  0  0  0  0  0  0  0  0  0
    0.2975    2.8321    0.0000 O   0  0  0  0  0  0  0  0  0  0  0  0
   -0.7046   -1.4527    0.0000 O   0  0  0  0  0  0  0  0  0  0  0  0
   -0.3271   -2.8282    0.0000 O   0  0  0  0  0  0  0  0  0  0  0  0
    7.5234   -4.4867    0.0000 O   0  0  0  0  0  0  0  0  0  0  0  0
    7.2399   -5.8767    0.0000 O   0  0  0  0  0  0  0  0  0  0  0  0
   -3.1874    0.1226    0.0000 O   0  0  0  0  0  0  0  0  0  0  0  0
   -2.6482    1.3550    0.0000 O   0  0  0  0  0  0  0  0  0  0  0  0
    0.1665    0.4024    0.0000 O   0  0  0  0  0  0  0  0  0  0  0  0
    1.2118   -0.0106    0.0000 O   0  0  0  0  0  0  0  0  0  0  0  0
   -0.8631    5.5771    0.0000 O   0  0  0  0  0  0  0  0  0  0  0  0
   -2.1604    1.8110    0.0000 O   0  0  0  0  0  0  0  0  0  0  0  0
    3.3439    4.5504    0.0000 O   0  0  0  0  0  0  0  0  0  0  0  0
   -5.5741   -0.8729    0.0000 O   0  0  0  0  0  0  0  0  0  0  0  0
    5.5740    0.8734    0.0000 O   0  0  0  0  0  0  0  0  0  0  0  0
   -3.3437   -4.5504    0.0000 O   0  0  0  0  0  0  0  0  0  0  0  0
    2.8182   -1.4790    0.0000 O   0  0  0  0  0  0  0  0  0  0  0  0
    0.8628   -5.5774    0.0000 O   0  0  0  0  0  0  0  0  0  0  0  0
    0.6401    5.6965    0.0000 O   0  0  0  0  0  0  0  0  0  0  0  0
   -1.8137    3.4355    0.0000 O   0  0  0  0  0  0  0  0  0  0  0  0
    4.4806    3.5787    0.0000 O   0  0  0  0  0  0  0  0  0  0  0  0
   -5.7110    0.6108    0.0000 O   0  0  0  0  0  0  0  0  0  0  0  0
    5.7111   -0.6108    0.0000 O   0  0  0  0  0  0  0  0  0  0  0  0
   -4.4817   -3.5736    0.0000 O   0  0  0  0  0  0  0  0  0  0  0  0
    1.8415   -3.4475    0.0000 O   0  0  0  0  0  0  0  0  0  0  0  0
   -0.6402   -5.6965    0.0000 O   0  0  0  0  0  0  0  0  0  0  0  0
    0.4829    3.5066    0.0000 O   0  0  0  0  0  0  0  0  0  0  0  0
   -3.2413    3.7059    0.0000 O   0  0  0  0  0  0  0  0  0  0  0  0
    2.8210    2.1380    0.0000 O   0  0  0  0  0  0  0  0  0  0  0  0
   -3.5066    0.4829    0.0000 O   0  0  0  0  0  0  0  0  0  0  0  0
    3.5066   -0.4829    0.0000 O   0  0  0  0  0  0  0  0  0  0  0  0
   -2.8210   -2.1380    0.0000 O   0  0  0  0  0  0  0  0  0  0  0  0
    3.2413   -3.7060    0.0000 O   0  0  0  0  0  0  0  0  0  0  0  0
   -0.4829   -3.5066    0.0000 O   0  0  0  0  0  0  0  0  0  0  0  0
   -1.6679    3.9744    0.0000 O   0  0  0  0  0  0  0  0  0  0  0  0
    1.6309    3.9897    0.0000 O   0  0  0  0  0  0  0  0  0  0  0  0
   -3.9897    1.6309    0.0000 O   0  0  0  0  0  0  0  0  0  0  0  0
    3.9744    1.6679    0.0000 O   0  0  0  0  0  0  0  0  0  0  0  0
   -3.9744   -1.6679    0.0000 O   0  0  0  0  0  0  0  0  0  0  0  0
    3.9897   -1.6309    0.0000 O   0  0  0  0  0  0  0  0  0  0  0  0
   -1.6309   -3.9897    0.0000 O   0  0  0  0  0  0  0  0  0  0  0  0
    1.6679   -3.9744    0.0000 O   0  0  0  0  0  0  0  0  0  0  0  0
   -1.0724    2.1913    0.0000 S   0  0  0  0  0  0  0  0  0  0  0  0
    1.1809    1.5586    0.0000 S   0  0  0  0  0  0  0  0  0  0  0  0
   -4.9908    4.0551    0.0000 S   0  0  0  0  0  0  0  0  0  0  0  0
    2.6570    1.5721    0.0000 S   0  0  0  0  0  0  0  0  0  0  0  0
   -2.6622   -1.5671    0.0000 S   0  0  0  0  0  0  0  0  0  0  0  0
    4.9908   -4.0550    0.0000 S   0  0  0  0  0  0  0  0  0  0  0  0
   -1.2255   -1.5206    0.0000 S   0  0  0  0  0  0  0  0  0  0  0  0
    0.9414   -2.2545    0.0000 S   0  0  0  0  0  0  0  0  0  0  0  0
  9  1  1  0
 10  2  1  0
 11  3  1  0
 12  4  1  0
 13  5  1  0
 14  6  1  0
 15  7  1  0
 16  8  1  0
 25 17  1  6
 26 18  1  6
 27 19  1  1
 28 20  1  6
 29 21  1  6
 30 22  1  1
 31 23  1  6
 32 24  1  6
 33  1  1  0
 34  2  1  0
 35  3  1  0
 36  4  1  0
 37  5  1  0
 38  6  1  0
 39  7  1  0
 40  8  1  0
 49 41  1  0
 50 42  1  0
 51 43  1  0
 52 44  1  0
 53 45  1  0
 54 46  1  0
 55 47  1  0
 56 48  1  0
 57 25  1  1
 57 41  1  0
 58 26  1  1
 58 43  1  0
 59 27  1  6
 59 42  1  0
 60 28  1  1
 60 45  1  0
 61 29  1  1
 61 44  1  0
 62 30  1  6
 62 47  1  0
 63 31  1  1
 63 46  1  0
 64 32  1  1
 64 48  1  0
 65 49  1  0
 66 50  1  0
 67 51  1  0
 68 52  1  0
 69 53  1  0
 70 54  1  0
 71 55  1  0
 72 56  1  0
 73 33  2  0
 74 33  1  0
 75 34  2  0
 76 34  1  0
 77 35  2  0
 78 35  1  0
 79 36  2  0
 80 36  1  0
 81 37  2  0
 82 37  1  0
 83 38  2  0
 84 38  1  0
 85 39  2  0
 86 39  1  0
 87 40  2  0
 88 40  1  0
 41 89  1  6
 42 90  1  1
 43 91  1  6
 44 92  1  6
 45 93  1  6
 46 94  1  6
 47 95  1  1
 48 96  1  6
 49 97  1  1
 50 98  1  6
 51 99  1  1
 52100  1  1
 53101  1  1
 54102  1  1
 55103  1  6
 56104  1  1
105 25  1  0
 65105  1  1
106 27  1  0
 66106  1  6
107 26  1  0
 67107  1  1
108 29  1  0
 68108  1  1
109 28  1  0
 69109  1  1
110 31  1  0
 70110  1  1
111 30  1  0
 71111  1  6
112 32  1  0
 72112  1  1
 57113  1  0
 66113  1  0
 58114  1  0
 65114  1  0
 59115  1  0
 68115  1  0
 60116  1  0
 67116  1  0
 61117  1  0
 70117  1  0
 62118  1  0
 69118  1  0
 63119  1  0
 72119  1  0
 64120  1  0
 71120  1  0
121  9  1  0
121 17  1  0
122 10  1  0
122 18  1  0
123 11  1  0
123 19  1  0
124 12  1  0
124 20  1  0
125 13  1  0
125 21  1  0
126 14  1  0
126 22  1  0
127 15  1  0
127 23  1  0
128 16  1  0
128 24  1  0
M  END
$$$$
