
     RDKit          2D

 60 65  0  0  0  0  0  0  0  0999 V2000
    1.0100    0.5622    0.0000 C   0  0  0  0  0  0  0  0  0  0  0  0
    0.1850    0.5622    0.0000 C   0  0  0  0  0  0  0  0  0  0  0  0
   -0.2276   -0.1523    0.0000 C   0  0  0  0  0  0  0  0  0  0  0  0
    0.1849   -0.8668    0.0000 C   0  0  0  0  0  0  0  0  0  0  0  0
    1.0099   -0.8668    0.0000 C   0  0  0  0  0  0  0  0  0  0  0  0
    1.4224   -0.1523    0.0000 C   0  0  0  0  0  0  0  0  0  0  0  0
    1.4225    1.2767    0.0000 C   0  0  0  0  0  0  0  0  0  0  0  0
    2.6600    0.5621    0.0000 C   0  0  0  0  0  0  0  0  0  0  0  0
    2.2475    1.2766    0.0000 C   0  0  0  0  0  0  0  0  0  0  0  0
   -0.2275    1.2767    0.0000 C   0  0  0  0  0  0  0  0  0  0  0  0
    3.3744    0.9747    0.0000 C   0  0  0  0  0  0  0  0  0  0  0  0
    2.6600   -0.2629    0.0000 C   0  0  0  0  0  0  0  0  0  0  0  0
    3.3744   -0.6754    0.0000 C   0  0  0  0  0  0  0  0  0  0  0  0
    4.0889   -0.2629    0.0000 C   0  0  0  0  0  0  0  0  0  0  0  0
    4.0889    0.5621    0.0000 C   0  0  0  0  0  0  0  0  0  0  0  0
    2.1850   -1.3209    0.0000 C   0  0  0  0  0  0  0  0  0  0  0  0
    1.8349    0.5622    0.0000 C   0  0  0  0  0  0  0  0  0  0  0  0
    1.9495   -0.2525    0.0000 C   0  0  0  0  0  0  0  0  0  0  0  0
    2.6600    1.9911    0.0000 O   0  0  0  0  0  0  0  0  0  0  0  0
    1.6360    2.0736    0.0000 O   0  0  0  0  0  0  0  0  0  0  0  0
    1.4225    2.8705    0.0000 C   0  0  0  0  0  0  0  0  0  0  0  0
    2.7798    1.3590    0.0000 C   0  0  0  0  0  0  0  0  0  0  0  0
    3.5880    1.7715    0.0000 O   0  0  0  0  0  0  0  0  0  0  0  0
    4.3848    1.9851    0.0000 C   0  0  0  0  0  0  0  0  0  0  0  0
    4.5786   -0.9399    0.0000 O   0  0  0  0  0  0  0  0  0  0  0  0
    3.8494   -1.3899    0.0000 C   0  0  0  0  0  0  0  0  0  0  0  0
    3.1609   -1.4723    0.0000 O   0  0  0  0  0  0  0  0  0  0  0  0
    3.3744   -2.2692    0.0000 C   0  0  0  0  0  0  0  0  0  0  0  0
    2.7911   -2.8525    0.0000 O   0  0  0  0  0  0  0  0  0  0  0  0
    4.1713   -2.4827    0.0000 C   0  0  0  0  0  0  0  0  0  0  0  0
    1.7725   -2.0354    0.0000 O   0  0  0  0  0  0  0  0  0  0  0  0
    0.1225   -2.0266    0.0000 C   0  0  0  0  0  0  0  0  0  0  0  0
   -0.7025   -2.0222    0.0000 C   0  0  0  0  0  0  0  0  0  0  0  0
   -1.1188   -2.7345    0.0000 C   0  0  0  0  0  0  0  0  0  0  0  0
   -0.7101   -3.4512    0.0000 C   0  0  0  0  0  0  0  0  0  0  0  0
    0.1149   -3.4555    0.0000 C   0  0  0  0  0  0  0  0  0  0  0  0
    0.5312   -2.7432    0.0000 C   0  0  0  0  0  0  0  0  0  0  0  0
    1.3562   -2.7476    0.0000 C   0  0  0  0  0  0  0  0  0  0  0  0
    1.7649   -3.4643    0.0000 O   0  0  0  0  0  0  0  0  0  0  0  0
    0.7964   -1.6636    0.0000 O   0  0  0  0  0  0  0  0  0  0  0  0
   -4.6887    0.9921    0.0000 C   0  0  0  0  0  0  0  0  0  0  0  0
   -5.3657    0.5206    0.0000 C   0  0  0  0  0  0  0  0  0  0  0  0
   -5.2959   -0.3014    0.0000 C   0  0  0  0  0  0  0  0  0  0  0  0
   -4.5491   -0.6520    0.0000 C   0  0  0  0  0  0  0  0  0  0  0  0
   -3.8721   -0.1805    0.0000 C   0  0  0  0  0  0  0  0  0  0  0  0
   -3.9419    0.6415    0.0000 C   0  0  0  0  0  0  0  0  0  0  0  0
   -3.1253   -0.5311    0.0000 C   0  0  0  0  0  0  0  0  0  0  0  0
   -2.4483   -0.0596    0.0000 C   0  0  0  0  0  0  0  0  0  0  0  0
   -1.7015   -0.4102    0.0000 C   0  0  0  0  0  0  0  0  0  0  0  0
   -1.0244    0.0613    0.0000 O   0  0  0  0  0  0  0  0  0  0  0  0
   -1.6317   -1.2323    0.0000 O   0  0  0  0  0  0  0  0  0  0  0  0
   -2.9197    0.6174    0.0000 O   0  0  0  0  0  0  0  0  0  0  0  0
   -3.4758   -1.2779    0.0000 N   0  0  0  0  0  0  0  0  0  0  0  0
   -3.0633   -1.9924    0.0000 C   0  0  0  0  0  0  0  0  0  0  0  0
   -3.4758   -2.7069    0.0000 O   0  0  0  0  0  0  0  0  0  0  0  0
   -3.0633   -3.4213    0.0000 C   0  0  0  0  0  0  0  0  0  0  0  0
   -3.6467   -4.0047    0.0000 C   0  0  0  0  0  0  0  0  0  0  0  0
   -2.8498   -4.2182    0.0000 C   0  0  0  0  0  0  0  0  0  0  0  0
   -2.2665   -3.6349    0.0000 C   0  0  0  0  0  0  0  0  0  0  0  0
   -2.2383   -1.9924    0.0000 O   0  0  0  0  0  0  0  0  0  0  0  0
  1  2  2  0
  3  2  1  0
  3  4  1  0
  5  4  1  0
  5  6  1  0
  7  1  1  0
  1  6  1  0
  8  9  1  0
  7  9  1  0
  2 10  1  0
  3 50  1  6
  8 11  1  0
 12  8  1  0
 12 13  1  0
 13 14  1  0
 14 15  1  1
 11 15  1  0
  5 16  1  0
 12 16  1  1
  6 17  1  0
  6 18  1  0
  9 19  2  0
  7 20  1  1
 20 21  1  0
  8 22  1  1
 11 23  1  1
 23 24  1  0
 14 25  1  0
 13 26  1  0
 26 25  1  0
 13 27  1  6
 27 28  1  0
 28 29  2  0
 28 30  1  0
 16 31  1  6
 32 33  2  0
 33 34  1  0
 34 35  2  0
 35 36  1  0
 36 37  2  0
 32 37  1  0
 37 38  1  0
 38 31  1  0
 38 39  2  0
  5 40  1  1
 41 42  2  0
 42 43  1  0
 43 44  2  0
 44 45  1  0
 45 46  2  0
 41 46  1  0
 47 45  1  0
 47 48  1  0
 48 49  1  0
 49 50  1  0
 49 51  2  0
 48 52  1  1
 47 53  1  1
 53 54  1  0
 54 55  1  0
 55 56  1  0
 56 57  1  0
 56 58  1  0
 56 59  1  0
 54 60  2  0
M  END
$$$$
