
     RDKit          2D

 26 31  0  0  0  0  0  0  0  0999 V2000
   -0.4474   -1.5630    0.0000 O   0  0  0  0  0  0  0  0  0  0  0  0
   -2.9843   -0.0278    0.0000 O   0  0  0  0  0  0  0  0  0  0  0  0
   -3.1850   -2.1573    0.0000 O   0  0  0  0  0  0  0  0  0  0  0  0
   -3.1850    2.0102    0.0000 O   0  0  0  0  0  0  0  0  0  0  0  0
    0.4240   -0.8985    0.0000 N   0  0  0  0  0  0  0  0  0  0  0  0
   -1.7194   -0.4860    0.0000 C   0  0  0  0  0  0  0  0  0  0  0  0
   -1.0049   -0.8985    0.0000 C   0  0  0  0  0  0  0  0  0  0  0  0
   -0.2904   -0.4860    0.0000 C   0  0  0  0  0  0  0  0  0  0  0  0
   -1.2427    0.1189    0.0000 C   0  0  0  0  0  0  0  0  0  0  0  0
   -0.0694    0.1189    0.0000 C   0  0  0  0  0  0  0  0  0  0  0  0
   -2.4338   -0.8985    0.0000 C   0  0  0  0  0  0  0  0  0  0  0  0
   -1.7194    0.3389    0.0000 C   0  0  0  0  0  0  0  0  0  0  0  0
    1.2532   -1.1531    0.0000 C   0  0  0  0  0  0  0  0  0  0  0  0
   -0.2904    0.3389    0.0000 C   0  0  0  0  0  0  0  0  0  0  0  0
   -1.0049   -1.7236    0.0000 C   0  0  0  0  0  0  0  0  0  0  0  0
    1.8882   -0.5622    0.0000 C   0  0  0  0  0  0  0  0  0  0  0  0
   -1.0049    0.7514    0.0000 C   0  0  0  0  0  0  0  0  0  0  0  0
    0.6181   -1.7440    0.0000 C   0  0  0  0  0  0  0  0  0  0  0  0
   -1.7194   -2.1360    0.0000 C   0  0  0  0  0  0  0  0  0  0  0  0
   -2.4338   -1.7236    0.0000 C   0  0  0  0  0  0  0  0  0  0  0  0
   -2.4338    0.7514    0.0000 C   0  0  0  0  0  0  0  0  0  0  0  0
    2.7337   -0.3680    0.0000 C   0  0  0  0  0  0  0  0  0  0  0  0
    2.1428    0.2670    0.0000 C   0  0  0  0  0  0  0  0  0  0  0  0
   -1.0049    1.5764    0.0000 C   0  0  0  0  0  0  0  0  0  0  0  0
   -2.4338    1.5764    0.0000 C   0  0  0  0  0  0  0  0  0  0  0  0
   -1.7194    1.9888    0.0000 C   0  0  0  0  0  0  0  0  0  0  0  0
  7  1  1  1
 11  2  1  6
  2 21  1  0
  3 20  2  0
  4 25  1  0
  5  8  1  0
  5 10  1  0
  5 13  1  0
  5 18  1  1
  6  7  1  0
  6  9  1  1
  6 11  1  0
  6 12  1  0
  7  8  1  0
  7 15  1  0
  8 14  1  1
  9 10  1  0
 11 20  1  0
 12 17  2  0
 12 21  1  0
 13 16  1  0
 14 17  1  0
 15 19  1  0
 16 22  1  0
 16 23  1  0
 17 24  1  0
 19 20  1  0
 21 25  2  0
 22 23  1  0
 24 26  2  0
 25 26  1  0
M  CHG  1   5   1
M  END
$$$$
