
     RDKit          2D

 51 53  0  0  0  0  0  0  0  0999 V2000
   -3.1099   -2.6917    0.0000 C   0  0  0  0  0  0  0  0  0  0  0  0
   -1.0251   -4.8197    0.0000 C   0  0  0  0  0  0  0  0  0  0  0  0
   -2.6087   -3.3470    0.0000 C   0  0  0  0  0  0  0  0  0  0  0  0
   -2.7930   -1.9300    0.0000 C   0  0  0  0  0  0  0  0  0  0  0  0
   -0.2571   -4.5185    0.0000 C   0  0  0  0  0  0  0  0  0  0  0  0
   -1.6700   -4.3051    0.0000 C   0  0  0  0  0  0  0  0  0  0  0  0
   -1.7906   -3.2406    0.0000 C   0  0  0  0  0  0  0  0  0  0  0  0
   -1.9749   -1.8236    0.0000 C   0  0  0  0  0  0  0  0  0  0  0  0
   -0.1339   -3.7027    0.0000 C   0  0  0  0  0  0  0  0  0  0  0  0
   -1.5468   -3.4894    0.0000 C   0  0  0  0  0  0  0  0  0  0  0  0
   -0.4917   -0.9529    0.0000 C   0  0  0  0  0  0  0  0  0  0  0  0
    0.6556   -1.8046    0.0000 C   0  0  0  0  0  0  0  0  0  0  0  0
   -0.9834   -1.6153    0.0000 C   0  0  0  0  0  0  0  0  0  0  0  0
    0.1639   -2.4670    0.0000 C   0  0  0  0  0  0  0  0  0  0  0  0
   -1.8030    2.0753    0.0000 C   0  0  0  0  0  0  0  0  0  0  0  0
   -2.2947    1.4128    0.0000 C   0  0  0  0  0  0  0  0  0  0  0  0
   -0.4917    2.6431    0.0000 C   0  0  0  0  0  0  0  0  0  0  0  0
   -0.6556    1.2236    0.0000 C   0  0  0  0  0  0  0  0  0  0  0  0
   -3.6060    0.8450    0.0000 C   0  0  0  0  0  0  0  0  0  0  0  0
   -3.4421    2.2646    0.0000 C   0  0  0  0  0  0  0  0  0  0  0  0
    1.6391    3.1163    0.0000 C   0  0  0  0  0  0  0  0  0  0  0  0
    0.4917    3.9680    0.0000 C   0  0  0  0  0  0  0  0  0  0  0  0
    0.6556    1.7914    0.0000 C   0  0  0  0  0  0  0  0  0  0  0  0
   -1.4737   -2.4789    0.0000 C   0  0  0  0  0  0  0  0  0  0  0  0
   -0.7788   -3.1882    0.0000 C   0  0  0  0  0  0  0  0  0  0  0  0
    0.3278    2.5485    0.0000 C   0  0  0  0  0  0  0  0  0  0  0  0
    0.3278   -1.0475    0.0000 C   0  0  0  0  0  0  0  0  0  0  0  0
   -1.1473    0.5611    0.0000 C   0  0  0  0  0  0  0  0  0  0  0  0
   -3.2782    0.0880    0.0000 C   0  0  0  0  0  0  0  0  0  0  0  0
   -2.9503    2.9270    0.0000 C   0  0  0  0  0  0  0  0  0  0  0  0
    2.1308    3.7787    0.0000 C   0  0  0  0  0  0  0  0  0  0  0  0
   -0.3278    4.0626    0.0000 C   0  0  0  0  0  0  0  0  0  0  0  0
   -0.6556   -2.3724    0.0000 C   0  0  0  0  0  0  0  0  0  0  0  0
   -0.9834    1.9807    0.0000 N   0  0  0  0  0  0  0  0  0  0  0  0
   -3.1143    1.5075    0.0000 N   0  0  0  0  0  0  0  0  0  0  0  0
    0.8195    3.2109    0.0000 N   0  0  0  0  0  0  0  0  0  0  0  0
   -0.8195   -0.1958    0.0000 O   0  0  0  0  0  0  0  0  0  0  0  0
   -1.9669    0.6558    0.0000 O   0  0  0  0  0  0  0  0  0  0  0  0
   -3.7699   -0.5744    0.0000 O   0  0  0  0  0  0  0  0  0  0  0  0
   -2.4586   -0.0066    0.0000 O   0  0  0  0  0  0  0  0  0  0  0  0
   -2.1308    2.8324    0.0000 O   0  0  0  0  0  0  0  0  0  0  0  0
   -3.2782    3.6841    0.0000 O   0  0  0  0  0  0  0  0  0  0  0  0
    1.8030    4.5358    0.0000 O   0  0  0  0  0  0  0  0  0  0  0  0
    2.9503    3.6841    0.0000 O   0  0  0  0  0  0  0  0  0  0  0  0
   -0.8195    3.4002    0.0000 O   0  0  0  0  0  0  0  0  0  0  0  0
   -0.6556    4.8197    0.0000 O   0  0  0  0  0  0  0  0  0  0  0  0
    1.2488    0.6997    0.0000 O   0  0  0  0  0  0  0  0  0  0  0  0
   -0.2653    0.0441    0.0000 O   0  0  0  0  0  0  0  0  0  0  0  0
    0.1639    1.1289    0.0000 O   0  0  0  0  0  0  0  0  0  0  0  0
    0.8195   -0.3851    0.0000 O   0  0  0  0  0  0  0  0  0  0  0  0
    0.4917    0.3719    0.0000 P   0  0  0  0  0  0  0  0  0  0  0  0
  3  1  2  0
  4  1  1  0
  5  2  2  0
  6  2  1  0
  7  3  1  0
  8  4  2  0
  9  5  1  0
 10  6  2  0
 13 11  1  0
 14 12  1  0
 16 15  1  0
 24  7  2  0
 24  8  1  0
 25  9  2  0
 25 10  1  0
 26 17  1  0
 26 23  1  0
 27 11  1  0
 27 12  1  0
 28 18  1  0
 29 19  1  0
 30 20  1  0
 31 21  1  0
 32 22  1  0
 33 13  1  0
 33 14  1  0
 33 24  1  0
 33 25  1  0
 34 15  1  0
 34 17  1  0
 34 18  1  0
 35 16  1  0
 35 19  1  0
 35 20  1  0
 36 21  1  0
 36 22  1  0
 36 26  1  0
 37 28  2  0
 38 28  1  0
 39 29  2  0
 40 29  1  0
 41 30  2  0
 42 30  1  0
 43 31  2  0
 44 31  1  0
 45 32  2  0
 46 32  1  0
 49 23  1  0
 50 27  1  0
 51 47  1  0
 51 48  2  0
 51 49  1  0
 51 50  1  0
M  CHG  6  38  -1  40  -1  42  -1  44  -1  46  -1  47  -1
M  END
$$$$
