
     RDKit          2D

 19 20  0  0  0  0  0  0  0  0999 V2000
   -0.3479    0.4093    0.0000 C   0  0  0  0  0  0  0  0  0  0  0  0
   -1.0643    0.8187    0.0000 C   0  0  0  0  0  0  0  0  0  0  0  0
   -0.3479   -0.4093    0.0000 C   0  0  0  0  0  0  0  0  0  0  0  0
    0.3683    0.8187    0.0000 S   0  0  0  0  0  0  0  0  0  0  0  0
   -1.7602    0.4093    0.0000 C   0  0  0  0  0  0  0  0  0  0  0  0
   -1.0643    1.6374    0.0000 C   0  0  0  0  0  0  0  0  0  0  0  0
    0.3683   -0.8187    0.0000 C   0  0  0  0  0  0  0  0  0  0  0  0
   -1.0643   -0.8187    0.0000 C   0  0  0  0  0  0  0  0  0  0  0  0
    1.0643    0.4093    0.0000 C   0  0  0  0  0  0  0  0  0  0  0  0
    0.3683    1.6374    0.0000 O   0  0  0  0  0  0  0  0  0  0  0  0
   -2.4766    0.8187    0.0000 C   0  0  0  0  0  0  0  0  0  0  0  0
   -1.7602    2.0467    0.0000 C   0  0  0  0  0  0  0  0  0  0  0  0
    0.3683   -1.6374    0.0000 C   0  0  0  0  0  0  0  0  0  0  0  0
   -1.0643   -1.6374    0.0000 C   0  0  0  0  0  0  0  0  0  0  0  0
    1.7807    0.8187    0.0000 C   0  0  0  0  0  0  0  0  0  0  0  0
   -2.4766    1.6374    0.0000 C   0  0  0  0  0  0  0  0  0  0  0  0
   -0.3479   -2.0467    0.0000 C   0  0  0  0  0  0  0  0  0  0  0  0
    2.4766    0.4093    0.0000 N   0  0  0  0  0  0  0  0  0  0  0  0
    1.7807    1.6374    0.0000 O   0  0  0  0  0  0  0  0  0  0  0  0
  2  1  1  0
  3  1  1  0
  4  1  1  0
  5  2  2  0
  6  2  1  0
  7  3  2  0
  8  3  1  0
  4  9  1  6
 10  4  2  0
 11  5  1  0
 12  6  2  0
 13  7  1  0
 14  8  2  0
 15  9  1  0
 16 11  2  0
 16 12  1  0
 17 13  2  0
 17 14  1  0
 18 15  1  0
 19 15  2  0
M  END
$$$$
