
     RDKit          2D

 25 30  0  0  0  0  0  0  0  0999 V2000
   -0.1047   -0.3599    0.0000 C   0  0  0  0  0  0  0  0  0  0  0  0
    0.3094    0.3515    0.0000 C   0  0  0  0  0  0  0  0  0  0  0  0
   -0.9281   -0.3647    0.0000 C   0  0  0  0  0  0  0  0  0  0  0  0
    0.2996   -1.0761    0.0000 C   0  0  0  0  0  0  0  0  0  0  0  0
   -1.3375   -1.0761    0.0000 C   0  0  0  0  0  0  0  0  0  0  0  0
   -0.4848   -1.5877    0.0000 O   0  0  0  0  0  0  0  0  0  0  0  0
   -0.0998    1.0629    0.0000 C   0  0  0  0  0  0  0  0  0  0  0  0
    0.3142    1.7791    0.0000 N   0  0  0  0  0  0  0  0  0  0  0  0
   -1.3375    0.3515    0.0000 C   0  0  0  0  0  0  0  0  0  0  0  0
   -0.9281    1.0677    0.0000 C   0  0  0  0  0  0  0  0  0  0  0  0
    1.1231   -1.0809    0.0000 C   0  0  0  0  0  0  0  0  0  0  0  0
   -0.5237    0.3611    0.0000 C   0  0  0  0  0  0  0  0  0  0  0  0
    1.1328    0.3466    0.0000 C   0  0  0  0  0  0  0  0  0  0  0  0
    1.0257    2.1981    0.0000 C   0  0  0  0  0  0  0  0  0  0  0  0
   -2.1657   -1.0761    0.0000 C   0  0  0  0  0  0  0  0  0  0  0  0
   -0.5140    1.7791    0.0000 C   0  0  0  0  0  0  0  0  0  0  0  0
    1.7468    1.7937    0.0000 C   0  0  0  0  0  0  0  0  0  0  0  0
    2.1707    1.0823    0.0000 C   0  0  0  0  0  0  0  0  0  0  0  0
    2.5800    1.8034    0.0000 C   0  0  0  0  0  0  0  0  0  0  0  0
    1.5374   -0.3696    0.0000 C   0  0  0  0  0  0  0  0  0  0  0  0
   -2.1657    0.3515    0.0000 C   0  0  0  0  0  0  0  0  0  0  0  0
    0.7187    1.0725    0.0000 O   0  0  0  0  0  0  0  0  0  0  0  0
   -2.5751   -0.3647    0.0000 C   0  0  0  0  0  0  0  0  0  0  0  0
    1.5324   -1.8021    0.0000 C   0  0  0  0  0  0  0  0  0  0  0  0
   -2.5800   -1.7924    0.0000 O   0  0  0  0  0  0  0  0  0  0  0  0
  2  1  1  0
  3  1  1  0
  4  1  1  0
  5  3  2  0
  4  6  1  6
  7  2  1  0
  7  8  1  0
  9  3  1  0
  7 10  1  1
 11  4  1  0
  1 12  1  1
 13  2  1  0
 14  8  1  0
 15  5  1  0
 16 12  1  0
 17 14  1  0
 18 17  1  0
 19 17  1  0
 20 13  1  0
 21  9  2  0
  2 22  1  1
 23 21  1  0
 24 11  2  3
 25 15  1  0
 16  8  1  0
  6  5  1  0
 10  9  1  0
 20 11  1  0
 15 23  2  0
 18 19  1  0
M  END
$$$$
