
     RDKit          2D

 23 25  0  0  0  0  0  0  0  0999 V2000
   -3.1907    0.9214    0.0000 Cl  0  0  0  0  0  0  0  0  0  0  0  0
   -0.3816    1.7464    0.0000 S   0  0  0  0  0  0  0  0  0  0  0  0
   -1.8808    0.2540    0.0000 S   0  0  0  0  0  0  0  0  0  0  0  0
    0.1486    2.3785    0.0000 O   0  0  0  0  0  0  0  0  0  0  0  0
   -0.9120    2.3785    0.0000 O   0  0  0  0  0  0  0  0  0  0  0  0
   -0.3816   -0.7285    0.0000 O   0  0  0  0  0  0  0  0  0  0  0  0
    1.7617    0.5089    0.0000 O   0  0  0  0  0  0  0  0  0  0  0  0
    0.3328    1.3339    0.0000 N   0  0  0  0  0  0  0  0  0  0  0  0
    1.0473   -0.7285    0.0000 N   0  0  0  0  0  0  0  0  0  0  0  0
    1.7617   -1.9660    0.0000 N   0  0  0  0  0  0  0  0  0  0  0  0
   -1.0960    1.3339    0.0000 C   0  0  0  0  0  0  0  0  0  0  0  0
   -1.0960    0.5089    0.0000 C   0  0  0  0  0  0  0  0  0  0  0  0
    0.3328    0.5089    0.0000 C   0  0  0  0  0  0  0  0  0  0  0  0
   -0.3816    0.0964    0.0000 C   0  0  0  0  0  0  0  0  0  0  0  0
   -1.8808    1.5888    0.0000 C   0  0  0  0  0  0  0  0  0  0  0  0
   -2.3657    0.9214    0.0000 C   0  0  0  0  0  0  0  0  0  0  0  0
    1.0473    0.0964    0.0000 C   0  0  0  0  0  0  0  0  0  0  0  0
    1.0473    1.7464    0.0000 C   0  0  0  0  0  0  0  0  0  0  0  0
    1.7617   -1.1410    0.0000 C   0  0  0  0  0  0  0  0  0  0  0  0
    2.4762   -0.7285    0.0000 C   0  0  0  0  0  0  0  0  0  0  0  0
    2.4762   -2.3785    0.0000 C   0  0  0  0  0  0  0  0  0  0  0  0
    3.1907   -1.1410    0.0000 C   0  0  0  0  0  0  0  0  0  0  0  0
    3.1907   -1.9660    0.0000 C   0  0  0  0  0  0  0  0  0  0  0  0
  1 16  1  0
  2  4  2  0
  2  5  2  0
  2  8  1  0
  2 11  1  0
  3 12  1  0
  3 16  1  0
  6 14  1  0
  7 17  2  0
  8 13  1  0
  8 18  1  0
  9 17  1  0
  9 19  1  0
 10 19  2  0
 10 21  1  0
 11 12  2  0
 11 15  1  0
 12 14  1  0
 13 14  2  0
 13 17  1  0
 15 16  2  0
 19 20  1  0
 20 22  2  0
 21 23  2  0
 22 23  1  0
M  END
$$$$
