[NO NAME]
     RDKit          2D

 22 25  0  0  1  0  0  0  0  0999 V2000
   11.5249  -14.3560    0.0000 C   0  0  0  0  0  0  0  0  0  0  0  0
   10.0258  -15.3386    0.0000 C   0  0  0  0  0  0  0  0  0  0  0  0
   10.0258  -12.8637    0.0000 C   0  0  0  0  0  0  0  0  0  0  0  0
   12.0098  -13.6886    0.0000 C   0  0  0  0  0  0  0  0  0  0  0  0
    9.3113  -13.2761    0.0000 C   0  0  0  0  0  0  0  0  0  0  0  0
    7.8824  -14.1011    0.0000 C   0  0  0  0  0  0  0  0  0  0  0  0
    7.8824  -15.7511    0.0000 C   0  0  0  0  0  0  0  0  0  0  0  0
   10.0258  -14.5136    0.0000 C   0  0  0  0  0  0  0  0  0  0  0  0
    9.3113  -14.1011    0.0000 C   0  0  0  0  0  0  0  0  0  0  0  0
   10.7402  -13.2761    0.0000 C   0  0  0  0  0  0  0  0  0  0  0  0
   10.7402  -12.4512    0.0000 C   0  0  0  0  0  0  0  0  0  0  0  0
   10.7402  -14.1011    0.0000 C   0  0  0  0  0  0  0  0  0  0  0  0
    8.5968  -14.5136    0.0000 C   0  0  0  0  0  0  0  0  0  0  0  0
    8.5968  -13.6886    0.0000 C   0  0  0  0  0  0  0  0  0  0  0  0
    7.1679  -14.5136    0.0000 C   0  0  0  0  0  0  0  0  0  0  0  0
    7.1679  -15.3386    0.0000 C   0  0  0  0  0  0  0  0  0  0  0  0
    6.4535  -15.7511    0.0000 O   0  0  0  0  0  0  0  0  0  0  0  0
    8.5968  -15.3386    0.0000 C   0  0  0  0  0  0  0  0  0  0  0  0
    9.3113  -15.7511    0.0000 C   0  0  0  0  0  0  0  0  0  0  0  0
   11.5249  -13.0212    0.0000 C   0  0  0  0  0  0  0  0  0  0  0  0
   12.2393  -13.1423    0.0000 C   0  0  0  0  0  0  0  0  0  0  0  0
   11.5249  -12.1962    0.0000 O   0  0  0  0  0  0  0  0  0  0  0  0
 12  8  1  0
 12 10  1  0
 12  1  1  1
  8  9  1  0
  8  2  1  6
 10 20  1  0
 10  3  1  0
  4  1  1  0
  9 13  1  0
  9  5  1  1
  2 19  1  0
 13 18  1  0
 13  6  1  0
 18  7  2  0
  6 15  1  0
  7 16  1  0
 20  4  1  0
  3  5  1  0
 19 18  1  0
 15 16  1  0
 10 11  1  1
 13 14  1  1
 20 22  1  0
 16 17  2  0
 20 21  1  6
M  END
$$$$
