
     RDKit          2D

 32 35  0  0  0  0  0  0  0  0999 V2000
   -2.8878   -0.7838    0.0000 O   0  0  0  0  0  0  0  0  0  0  0  0
   -2.4752   -1.5264    0.0000 C   0  0  0  0  0  0  0  0  0  0  0  0
   -1.6502   -1.5264    0.0000 C   0  0  0  0  0  0  0  0  0  0  0  0
   -1.2376   -0.7838    0.0000 N   0  0  0  0  0  0  0  0  0  0  0  0
    0.8250   -1.5264    0.0000 C   0  0  0  0  0  0  0  0  0  0  0  0
    1.6501   -1.5264    0.0000 C   0  0  0  0  0  0  0  0  0  0  0  0
    2.0626   -0.8250    0.0000 O   0  0  0  0  0  0  0  0  0  0  0  0
    0.4125   -0.8250    0.0000 N   0  0  0  0  0  0  0  0  0  0  0  0
   -1.2376    0.8662    0.0000 N   0  0  0  0  0  0  0  0  0  0  0  0
   -1.6502    1.5675    0.0000 C   0  0  0  0  0  0  0  0  0  0  0  0
   -2.4752    1.5675    0.0000 C   0  0  0  0  0  0  0  0  0  0  0  0
   -2.8878    0.8662    0.0000 O   0  0  0  0  0  0  0  0  0  0  0  0
    2.0626    0.8662    0.0000 O   0  0  0  0  0  0  0  0  0  0  0  0
    1.6501    1.5675    0.0000 C   0  0  0  0  0  0  0  0  0  0  0  0
    0.8250    1.5675    0.0000 C   0  0  0  0  0  0  0  0  0  0  0  0
    0.4125    0.8662    0.0000 N   0  0  0  0  0  0  0  0  0  0  0  0
    1.1138   -0.4125    0.0000 C   0  0  0  0  0  0  0  0  0  0  0  0
    1.1138    0.4125    0.0000 C   0  0  0  0  0  0  0  0  0  0  0  0
   -0.8251   -1.5264    0.0000 C   0  0  0  0  0  0  0  0  0  0  0  0
    0.0000   -1.5264    0.0000 C   0  0  0  0  0  0  0  0  0  0  0  0
   -1.9802    0.4537    0.0000 C   0  0  0  0  0  0  0  0  0  0  0  0
   -1.9802   -0.3713    0.0000 C   0  0  0  0  0  0  0  0  0  0  0  0
    0.0000    1.5675    0.0000 C   0  0  0  0  0  0  0  0  0  0  0  0
   -0.8251    1.5675    0.0000 C   0  0  0  0  0  0  0  0  0  0  0  0
    2.0626    2.2690    0.0000 O   0  0  0  0  0  0  0  0  0  0  0  0
   -2.8878   -2.2277    0.0000 O   0  0  0  0  0  0  0  0  0  0  0  0
   -2.8878    2.2690    0.0000 O   0  0  0  0  0  0  0  0  0  0  0  0
    0.4125   -2.2277    0.0000 C   0  0  0  0  0  0  0  0  0  0  0  0
   -0.4125   -2.2690    0.0000 O   0  0  0  0  0  0  0  0  0  0  0  0
    2.0626   -2.2277    0.0000 C   0  0  0  0  0  0  0  0  0  0  0  0
    2.8878   -2.2690    0.0000 O   0  0  0  0  0  0  0  0  0  0  0  0
   -0.3648    0.0753    0.0000 Gd  0  0  0  0  0  4  0  0  0  0  0  0
 15 16  1  0
  3  4  1  0
  8 17  1  0
 17 18  1  0
 18 16  1  0
  1  2  1  0
  4 19  1  0
 19 20  1  0
 20  8  1  0
  9 10  1  0
 10 11  1  0
 21 22  1  0
 22  4  1  0
  9 21  1  0
 11 12  1  0
  2  3  1  0
 16 23  1  0
 23 24  1  0
 24  9  1  0
  5  6  1  0
 14 25  2  0
  6  7  1  1
  5  8  1  0
  2 26  2  0
 13 14  1  0
 11 27  2  0
 14 15  1  0
  5 28  1  6
 28 29  1  0
  6 30  1  0
 30 31  1  0
  9 32  1  0
 32 16  1  0
  8 32  1  0
  4 32  1  0
M  CHG  8   1  -1   4   1   8   1   9   1  12  -1  13  -1  16   1  32  -1
M  END
$$$$
