65B
     RDKit          2D

 28 30  0  0  0  0  0  0  0  0999 V2000
    2.0516   -0.7771    0.0000 C   0  0  0  0  0  0  0  0  0  0  0  0
    2.0516    0.0479    0.0000 O   0  0  0  0  0  0  0  0  0  0  0  0
    2.7660   -1.1896    0.0000 C   0  0  0  0  0  0  0  0  0  0  0  0
    3.4805   -0.7771    0.0000 C   0  0  0  0  0  0  0  0  0  0  0  0
    2.7660   -2.0146    0.0000 C   0  0  0  0  0  0  0  0  0  0  0  0
    2.0516   -2.4271    0.0000 C   0  0  0  0  0  0  0  0  0  0  0  0
    1.3371   -2.0146    0.0000 C   0  0  0  0  0  0  0  0  0  0  0  0
    1.3371   -1.1896    0.0000 C   0  0  0  0  0  0  0  0  0  0  0  0
    0.6226   -0.7771    0.0000 C   0  0  0  0  0  0  0  0  0  0  0  0
    1.3371    0.4604    0.0000 C   0  0  0  0  0  0  0  0  0  0  0  0
    0.6226    0.0479    0.0000 N   0  0  0  0  0  0  0  0  0  0  0  0
   -0.0918    0.4604    0.0000 C   0  0  0  0  0  0  0  0  0  0  0  0
   -0.8063    0.0479    0.0000 N   0  0  0  0  0  0  0  0  0  0  0  0
   -0.0918    1.2854    0.0000 N   0  0  0  0  0  0  0  0  0  0  0  0
    0.6226    1.6979    0.0000 C   0  0  0  0  0  0  0  0  0  0  0  0
    0.6226    2.5229    0.0000 N   0  0  0  0  0  0  0  0  0  0  0  0
    1.3371    1.2854    0.0000 C   0  0  0  0  0  0  0  0  0  0  0  0
   -1.5208    0.4604    0.0000 C   0  0  0  0  0  0  0  0  0  0  0  0
   -2.2353    0.0479    0.0000 C   0  0  0  0  0  0  0  0  0  0  0  0
   -2.9497    0.4604    0.0000 C   0  0  0  0  0  0  0  0  0  0  0  0
   -2.9497    1.2854    0.0000 C   0  0  0  0  0  0  0  0  0  0  0  0
   -2.2353    1.6979    0.0000 C   0  0  0  0  0  0  0  0  0  0  0  0
   -1.5208    1.2854    0.0000 C   0  0  0  0  0  0  0  0  0  0  0  0
   -3.6642    1.6979    0.0000 C   0  0  0  0  0  0  0  0  0  0  0  0
   -4.3787    2.1104    0.0000 N   0  0  0  0  0  0  0  0  0  0  0  0
    2.0516   -3.2521    0.0000 C   0  0  0  0  0  0  0  0  0  0  0  0
    2.0516   -4.0771    0.0000 N   0  0  0  0  0  0  0  0  0  0  0  0
    2.0516    1.6979    0.0000 Br  0  0  0  0  0  0  0  0  0  0  0  0
  1  2  1  0
  1  3  2  0
  1  8  1  0
  2 10  1  0
  3  4  1  0
  3  5  1  0
  5  6  2  0
  6  7  1  0
  6 26  1  0
  7  8  2  0
  8  9  1  0
 10 11  2  0
 10 17  1  0
 11 12  1  0
 12 13  1  0
 12 14  2  0
 13 18  1  0
 14 15  1  0
 15 16  1  0
 15 17  2  0
 17 28  1  0
 18 19  2  0
 18 23  1  0
 19 20  1  0
 20 21  2  0
 21 22  1  0
 21 24  1  0
 22 23  2  0
 24 25  3  0
 26 27  3  0
M  END
$$$$
