1712095
     RDKit          2D

 29 31  0  0  0  0  0  0  0  0999 V2000
    3.0788    2.4932    0.0000 O   0  0  0  0  0  0  0  0  0  0  0  0
    3.0788    0.8432    0.0000 O   0  0  0  0  0  0  0  0  0  0  0  0
    7.3502   -2.5015    0.0000 O   0  0  0  0  0  0  0  0  0  0  0  0
    8.7885   -1.6932    0.0000 O   0  0  0  0  0  0  0  0  0  0  0  0
    6.7071    1.2385    0.0000 N   0  0  0  0  0  0  0  0  0  0  0  0
    5.9596    2.5217    0.0000 C   0  0  0  0  0  0  0  0  0  0  0  0
    5.2221    2.0808    0.0000 C   0  0  0  0  0  0  0  0  0  0  0  0
    5.2221    1.2557    0.0000 C   0  0  0  0  0  0  0  0  0  0  0  0
    6.7071    2.0979    0.0000 C   0  0  0  0  0  0  0  0  0  0  0  0
    5.9596    0.8146    0.0000 C   0  0  0  0  0  0  0  0  0  0  0  0
    4.5077    2.4932    0.0000 C   0  0  0  0  0  0  0  0  0  0  0  0
    4.5077    0.8432    0.0000 C   0  0  0  0  0  0  0  0  0  0  0  0
    3.7933    2.0808    0.0000 C   0  0  0  0  0  0  0  0  0  0  0  0
    3.7933    1.2557    0.0000 C   0  0  0  0  0  0  0  0  0  0  0  0
    5.9500   -0.0102    0.0000 C   0  0  0  0  0  0  0  0  0  0  0  0
    6.6597   -0.4310    0.0000 C   0  0  0  0  0  0  0  0  0  0  0  0
    6.6502   -1.2559    0.0000 C   0  0  0  0  0  0  0  0  0  0  0  0
    7.3788   -0.0268    0.0000 C   0  0  0  0  0  0  0  0  0  0  0  0
    7.3597   -1.6766    0.0000 C   0  0  0  0  0  0  0  0  0  0  0  0
    3.0788    3.3182    0.0000 C   0  0  0  0  0  0  0  0  0  0  0  0
    2.3644    1.2557    0.0000 C   0  0  0  0  0  0  0  0  0  0  0  0
    8.0790   -1.2724    0.0000 C   0  0  0  0  0  0  0  0  0  0  0  0
    8.0885   -0.4475    0.0000 C   0  0  0  0  0  0  0  0  0  0  0  0
    2.3644    3.7307    0.0000 C   0  0  0  0  0  0  0  0  0  0  0  0
    1.6499    0.8432    0.0000 C   0  0  0  0  0  0  0  0  0  0  0  0
    6.6311   -2.9057    0.0000 C   0  0  0  0  0  0  0  0  0  0  0  0
    9.5077   -1.2889    0.0000 C   0  0  0  0  0  0  0  0  0  0  0  0
    6.6215   -3.7307    0.0000 C   0  0  0  0  0  0  0  0  0  0  0  0
   10.2174   -1.7097    0.0000 C   0  0  0  0  0  0  0  0  0  0  0  0
  1 13  1  0
  1 20  1  0
  2 14  1  0
  2 21  1  0
  3 19  1  0
  3 26  1  0
  4 22  1  0
  4 27  1  0
  5  9  1  0
  5 10  1  0
  6  7  1  0
  6  9  1  0
  7  8  2  0
  7 11  1  0
  8 10  1  0
  8 12  1  0
 10 15  2  0
 11 13  2  0
 12 14  2  0
 13 14  1  0
 15 16  1  0
 16 17  2  0
 16 18  1  0
 17 19  1  0
 18 23  2  0
 19 22  2  0
 20 24  1  0
 21 25  1  0
 22 23  1  0
 26 28  1  0
 27 29  1  0
M  END
$$$$
