
     RDKit          2D

 21 22  0  0  0  0  0  0  0  0999 V2000
    0.0000    0.0000    0.0000 N   0  0  0  0  0  0  0  0  0  0  0  0
    1.4445   -2.4659    0.0000 C   0  0  0  0  0  0  0  0  0  0  0  0
    2.1564   -2.0489    0.0000 C   0  0  0  0  0  0  0  0  0  0  0  0
    2.1511   -1.2239    0.0000 C   0  0  0  0  0  0  0  0  0  0  0  0
    1.4341   -0.8159    0.0000 C   0  0  0  0  0  0  0  0  0  0  0  0
    0.7222   -1.2329    0.0000 C   0  0  0  0  0  0  0  0  0  0  0  0
    0.7274   -2.0579    0.0000 C   0  0  0  0  0  0  0  0  0  0  0  0
    0.0052   -0.8250    0.0000 C   0  0  0  0  0  0  0  0  0  0  0  0
    0.7118    0.4170    0.0000 C   0  0  0  0  0  0  0  0  0  0  0  0
    1.4289    0.0090    0.0000 C   0  0  0  0  0  0  0  0  0  0  0  0
   -0.7171    0.4080    0.0000 C   0  0  0  0  0  0  0  0  0  0  0  0
   -1.4393    1.6409    0.0000 C   0  0  0  0  0  0  0  0  0  0  0  0
   -2.1511    1.2239    0.0000 C   0  0  0  0  0  0  0  0  0  0  0  0
   -2.1459    0.3989    0.0000 C   0  0  0  0  0  0  0  0  0  0  0  0
    2.1408    0.4260    0.0000 N   0  0  0  0  0  0  0  0  0  0  0  0
    2.1355    1.2510    0.0000 C   0  0  0  0  0  0  0  0  0  0  0  0
    2.8578    0.0181    0.0000 C   0  0  0  0  0  0  0  0  0  0  0  0
    2.8734   -2.4569    0.0000 O   0  0  0  0  0  0  0  0  0  0  0  0
    3.5853   -2.0399    0.0000 C   0  0  0  0  0  0  0  0  0  0  0  0
   -1.4289   -0.0090    0.0000 N   0  0  0  0  0  0  0  0  0  0  0  0
   -0.7222    1.2329    0.0000 C   0  0  0  0  0  0  0  0  0  0  0  0
  8  1  1  0
  1  9  1  0
  1 11  1  0
  2  3  2  0
  2  7  1  0
  3  4  1  0
  3 18  1  0
  4  5  2  0
  5  6  1  0
  6  7  2  0
  6  8  1  0
  9 10  1  0
 10 15  1  0
 11 21  1  0
 11 20  2  0
 21 12  2  0
 12 13  1  0
 13 14  2  0
 14 20  1  0
 15 16  1  0
 15 17  1  0
 18 19  1  0
M  END
$$$$
