
     RDKit          2D

 77 84  0  0  1  0  0  0  0  0999 V2000
   15.4754   -6.2574    0.0000 C   0  0  0  0  0  0  0  0  0  0  0  0
   16.1865   -5.8391    0.0000 C   0  0  0  0  0  0  0  0  0  0  0  0
   14.7643   -5.8391    0.0000 N   0  0  0  0  0  0  0  0  0  0  0  0
   15.4754   -7.0939    0.0000 C   0  0  0  0  0  0  0  0  0  0  0  0
   16.8976   -6.2574    0.0000 C   0  0  0  0  0  0  0  0  0  0  0  0
   17.6086   -5.8391    0.0000 C   0  0  0  0  0  0  0  0  0  0  0  0
   18.3197   -6.2574    0.0000 C   0  0  0  0  0  0  0  0  0  0  0  0
   19.0308   -5.8391    0.0000 N   0  0  0  0  0  0  0  0  0  0  0  0
   16.1865   -7.5122    0.0000 N   0  0  0  0  0  0  0  0  0  0  0  0
   14.7643   -7.5122    0.0000 O   0  0  0  0  0  0  0  0  0  0  0  0
   14.0533   -6.2574    0.0000 C   0  0  0  0  0  0  0  0  0  0  0  0
   13.3422   -5.8391    0.0000 C   0  0  0  0  0  0  0  0  0  0  0  0
   14.0533   -7.0939    0.0000 O   0  0  0  0  0  0  0  0  0  0  0  0
   12.6311   -6.2574    0.0000 N   0  0  0  0  0  0  0  0  0  0  0  0
   13.3422   -5.0025    0.0000 C   0  0  0  0  0  0  0  0  0  0  0  0
   16.1865   -8.3488    0.0000 C   0  0  0  0  0  0  0  0  0  0  0  0
   16.8976   -8.7670    0.0000 C   0  0  0  0  0  0  0  0  0  0  0  0
   15.4754   -8.7670    0.0000 C   0  0  0  0  0  0  0  0  0  0  0  0
   14.7643   -8.3488    0.0000 O   0  0  0  0  0  0  0  0  0  0  0  0
   15.4754   -9.6036    0.0000 N   0  0  0  0  0  0  0  0  0  0  0  0
   17.6086   -8.3488    0.0000 C   0  0  0  0  0  0  0  0  0  0  0  0
   17.6086   -7.5122    0.0000 C   0  0  0  0  0  0  0  0  0  0  0  0
   18.3615   -7.0939    0.0000 C   0  0  0  0  0  0  0  0  0  0  0  0
   19.0726   -7.5122    0.0000 C   0  0  0  0  0  0  0  0  0  0  0  0
   19.0726   -8.3488    0.0000 C   0  0  0  0  0  0  0  0  0  0  0  0
   18.3615   -8.7670    0.0000 C   0  0  0  0  0  0  0  0  0  0  0  0
   19.7837   -7.0939    0.0000 O   0  0  0  0  0  0  0  0  0  0  0  0
   20.4948   -7.5122    0.0000 C   0  0  0  0  0  0  0  0  0  0  0  0
   21.2059   -7.0939    0.0000 C   0  0  0  0  0  0  0  0  0  0  0  0
   21.2059   -6.2574    0.0000 C   0  0  0  0  0  0  0  0  0  0  0  0
   21.9588   -5.8391    0.0000 C   0  0  0  0  0  0  0  0  0  0  0  0
   22.6699   -6.2574    0.0000 C   0  0  0  0  0  0  0  0  0  0  0  0
   22.6699   -7.0939    0.0000 C   0  0  0  0  0  0  0  0  0  0  0  0
   21.9588   -7.5122    0.0000 C   0  0  0  0  0  0  0  0  0  0  0  0
   14.7643  -10.0219    0.0000 C   0  0  0  0  0  0  0  0  0  0  0  0
   14.0533   -9.6036    0.0000 C   0  0  0  0  0  0  0  0  0  0  0  0
   14.7643  -10.8585    0.0000 C   0  0  0  0  0  0  0  0  0  0  0  0
   15.4754  -11.2767    0.0000 C   0  0  0  0  0  0  0  0  0  0  0  0
   16.1865  -10.8585    0.0000 C   0  0  0  0  0  0  0  0  0  0  0  0
   16.9394  -11.2768    0.0000 C   0  0  0  0  0  0  0  0  0  0  0  0
   16.9394  -12.1133    0.0000 C   0  0  0  0  0  0  0  0  0  0  0  0
   16.2283  -12.5316    0.0000 C   0  0  0  0  0  0  0  0  0  0  0  0
   15.4754  -12.1133    0.0000 C   0  0  0  0  0  0  0  0  0  0  0  0
   13.3422  -10.0219    0.0000 N   0  0  0  0  0  0  0  0  0  0  0  0
   14.0533   -8.7670    0.0000 O   0  0  0  0  0  0  0  0  0  0  0  0
   12.6311   -7.0939    0.0000 C   0  0  0  0  0  0  0  0  0  0  0  0
   13.3422   -7.5122    0.0000 O   0  0  0  0  0  0  0  0  0  0  0  0
   11.9200   -7.5122    0.0000 C   0  0  0  0  0  0  0  0  0  0  0  0
   11.2090   -7.0939    0.0000 C   0  0  0  0  0  0  0  0  0  0  0  0
   11.9200   -8.3488    0.0000 N   0  0  0  0  0  0  0  0  0  0  0  0
   10.4979   -7.5122    0.0000 C   0  0  0  0  0  0  0  0  0  0  0  0
    9.7450   -7.0939    0.0000 C   0  0  0  0  0  0  0  0  0  0  0  0
    9.7450   -6.2574    0.0000 C   0  0  0  0  0  0  0  0  0  0  0  0
   10.4561   -5.8391    0.0000 C   0  0  0  0  0  0  0  0  0  0  0  0
   11.2090   -6.2574    0.0000 C   0  0  0  0  0  0  0  0  0  0  0  0
   12.6311   -8.7670    0.0000 C   0  0  0  0  0  0  0  0  0  0  0  0
   13.3422   -8.3488    0.0000 O   0  0  0  0  0  0  0  0  0  0  0  0
   12.6311   -9.6036    0.0000 C   0  0  0  0  0  0  0  0  0  0  0  0
   13.2585  -10.7748    0.0000 C   0  0  0  0  0  0  0  0  0  0  0  0
   12.0396  -10.1951    0.0000 C   0  0  0  0  0  0  0  0  0  0  0  0
   12.4234  -10.9614    0.0000 C   0  0  0  0  0  0  0  0  0  0  0  0
   12.0716  -11.7018    0.0000 O   0  0  0  0  0  0  0  0  0  0  0  0
   11.2539  -11.6837    0.0000 C   0  0  0  0  0  0  0  0  0  0  0  0
   10.8137  -12.4084    0.0000 O   0  0  0  0  0  0  0  0  0  0  0  0
   10.8559  -10.9575    0.0000 N   0  0  0  0  0  0  0  0  0  0  0  0
   10.0378  -10.9392    0.0000 C   0  0  0  0  0  0  0  0  0  0  0  0
    9.6372  -10.2077    0.0000 C   0  0  0  0  0  0  0  0  0  0  0  0
    8.7829  -10.1889    0.0000 N   0  0  0  0  0  0  0  0  0  0  0  0
   14.0566   -4.5900    0.0000 C   0  0  0  0  0  0  0  0  0  0  0  0
   14.1429   -3.7696    0.0000 C   0  0  0  0  0  0  0  0  0  0  0  0
   14.8104   -4.9256    0.0000 C   0  0  0  0  0  0  0  0  0  0  0  0
   14.9499   -3.5981    0.0000 C   0  0  0  0  0  0  0  0  0  0  0  0
   15.3624   -4.3124    0.0000 N   0  0  0  0  0  0  0  0  0  0  0  0
   15.1845   -2.8072    0.0000 C   0  0  0  0  0  0  0  0  0  0  0  0
   14.6168   -2.2085    0.0000 C   0  0  0  0  0  0  0  0  0  0  0  0
   13.8145   -2.4007    0.0000 C   0  0  0  0  0  0  0  0  0  0  0  0
   13.5799   -3.1916    0.0000 C   0  0  0  0  0  0  0  0  0  0  0  0
  1  2  1  1
  1  3  1  0
  1  4  1  0
  2  5  1  0
  5  6  1  0
  6  7  1  0
  7  8  1  0
  4  9  1  0
  4 10  2  0
  3 11  1  0
 11 12  1  0
 11 13  2  0
 12 14  1  0
 12 15  1  6
  9 16  1  0
 16 17  1  1
 16 18  1  0
 18 19  2  0
 18 20  1  0
 17 21  1  0
 21 22  2  0
 22 23  1  0
 23 24  2  0
 24 25  1  0
 25 26  2  0
 21 26  1  0
 24 27  1  0
 27 28  1  0
 28 29  1  0
 29 30  2  0
 30 31  1  0
 31 32  2  0
 32 33  1  0
 33 34  2  0
 29 34  1  0
 20 35  1  0
 35 36  1  0
 35 37  1  1
 37 38  1  0
 38 39  2  0
 39 40  1  0
 40 41  2  0
 41 42  1  0
 42 43  2  0
 38 43  1  0
 36 44  1  0
 36 45  2  0
 14 46  1  0
 46 47  2  0
 46 48  1  0
 48 49  1  1
 48 50  1  0
 49 51  2  0
 51 52  1  0
 52 53  2  0
 53 54  1  0
 54 55  2  0
 49 55  1  0
 50 56  1  0
 56 57  2  0
 56 58  1  0
 44 58  1  0
 44 59  1  0
 58 60  1  1
 60 61  1  0
 59 61  1  0
 61 62  1  6
 62 63  1  0
 63 64  2  0
 63 65  1  0
 65 66  1  0
 66 67  1  0
 67 68  1  0
 70 69  1  0
 71 69  2  0
 73 71  1  0
 73 72  1  0
 15 69  1  0
 72 74  1  0
 75 74  2  0
 70 72  2  0
 76 75  1  0
 77 70  1  0
 77 76  2  0
M  END
$$$$
