CLT
     RDKit          2D

 12 12  0  0  0  0  0  0  0  0999 V2000
    1.4968    0.4655    0.0000 C   0  0  0  0  0  0  0  0  0  0  0  0
    0.7823    0.0530    0.0000 C   0  0  0  0  0  0  0  0  0  0  0  0
    0.0678    0.4655    0.0000 C   0  0  0  0  0  0  0  0  0  0  0  0
   -0.6467    0.0530    0.0000 C   0  0  0  0  0  0  0  0  0  0  0  0
   -0.6467   -0.7720    0.0000 C   0  0  0  0  0  0  0  0  0  0  0  0
   -1.3611    0.4655    0.0000 C   0  0  0  0  0  0  0  0  0  0  0  0
   -1.3611   -1.1845    0.0000 C   0  0  0  0  0  0  0  0  0  0  0  0
   -2.0756    0.0530    0.0000 C   0  0  0  0  0  0  0  0  0  0  0  0
   -2.0756   -0.7720    0.0000 C   0  0  0  0  0  0  0  0  0  0  0  0
    2.2112    0.0530    0.0000 C   0  0  0  0  0  0  0  0  0  0  0  0
    2.9257    0.4655    0.0000 O   0  0  0  0  0  0  0  0  0  0  0  0
    2.2112   -0.7720    0.0000 O   0  0  0  0  0  0  0  0  0  0  0  0
  1  2  1  0
  1 10  1  0
  2  3  1  0
  3  4  1  0
  4  5  2  0
  4  6  1  0
  5  7  1  0
  6  8  2  0
  7  9  2  0
  8  9  1  0
 10 11  2  0
 10 12  1  0
M  END
$$$$
