
     RDKit          2D

 28 30  0  0  0  0  0  0  0  0999 V2000
   -2.5368    0.4331    0.0000 C   0  0  0  0  0  0  0  0  0  0  0  0
   -2.5368    1.2581    0.0000 C   0  0  0  0  0  0  0  0  0  0  0  0
   -1.7943    1.6706    0.0000 C   0  0  0  0  0  0  0  0  0  0  0  0
   -1.0931    1.2581    0.0000 C   0  0  0  0  0  0  0  0  0  0  0  0
   -1.0931    0.4331    0.0000 C   0  0  0  0  0  0  0  0  0  0  0  0
   -1.7943    0.0206    0.0000 C   0  0  0  0  0  0  0  0  0  0  0  0
   -0.3506    0.0206    0.0000 C   0  0  0  0  0  0  0  0  0  0  0  0
    0.3506    0.4331    0.0000 C   0  0  0  0  0  0  0  0  0  0  0  0
    1.0518    0.0206    0.0000 N   0  0  0  0  0  0  0  0  0  0  0  0
    1.7531    0.4331    0.0000 C   0  0  0  0  0  0  0  0  0  0  0  0
    2.4543    0.0206    0.0000 C   0  0  0  0  0  0  0  0  0  0  0  0
    2.4543   -0.8043    0.0000 N   0  0  0  0  0  0  0  0  0  0  0  0
    1.7531   -1.2168    0.0000 C   0  0  0  0  0  0  0  0  0  0  0  0
    1.0518   -0.8043    0.0000 C   0  0  0  0  0  0  0  0  0  0  0  0
    3.1968   -1.2581    0.0000 C   0  0  0  0  0  0  0  0  0  0  0  0
    3.8981   -0.8456    0.0000 C   0  0  0  0  0  0  0  0  0  0  0  0
    4.6406   -1.2581    0.0000 C   0  0  0  0  0  0  0  0  0  0  0  0
    4.6406   -2.0831    0.0000 C   0  0  0  0  0  0  0  0  0  0  0  0
    3.8981   -2.4956    0.0000 C   0  0  0  0  0  0  0  0  0  0  0  0
    3.1968   -2.0831    0.0000 C   0  0  0  0  0  0  0  0  0  0  0  0
    5.3418   -0.8043    0.0000 Cl  0  0  0  0  0  0  0  0  0  0  0  0
    3.8981    0.0206    0.0000 Cl  0  0  0  0  0  0  0  0  0  0  0  0
   -3.2381    1.6706    0.0000 N   0  0  0  0  0  0  0  0  0  0  0  0
   -3.9393    1.2581    0.0000 C   0  0  0  0  0  0  0  0  0  0  0  0
   -4.6406    1.6706    0.0000 N   0  0  0  0  0  0  0  0  0  0  0  0
   -3.9393    0.4331    0.0000 O   0  0  0  0  0  0  0  0  0  0  0  0
   -5.3418    1.2581    0.0000 C   0  0  0  0  0  0  0  0  0  0  0  0
   -4.6406    2.4956    0.0000 C   0  0  0  0  0  0  0  0  0  0  0  0
  1  2  1  0
  2  3  1  0
  3  4  1  0
  4  5  1  0
  5  6  1  0
  1  6  1  0
  5  7  1  6
  7  8  1  0
  8  9  1  0
  9 10  1  0
 10 11  1  0
 11 12  1  0
 12 13  1  0
 13 14  1  0
  9 14  1  0
 12 15  1  0
 15 16  2  0
 16 17  1  0
 17 18  2  0
 18 19  1  0
 19 20  2  0
 15 20  1  0
 17 21  1  0
 16 22  1  0
  2 23  1  1
 23 24  1  0
 24 25  1  0
 24 26  2  0
 25 27  1  0
 25 28  1  0
M  END
$$$$
