
     RDKit          2D

 24 27  0  0  1  0  0  0  0  0999 V2000
    7.7832    1.5550    0.0000 O   0  0  0  0  0  0  0  0  0  0  0  0
    2.0939   -1.5843    0.0000 O   0  0  0  0  0  0  0  0  0  0  0  0
    2.8068   -1.9996    0.0000 N   0  0  0  0  0  0  0  0  0  0  0  0
    7.2561    0.5186    0.0000 C   0  0  0  0  0  0  0  0  0  0  0  0
    7.2561   -0.3064    0.0000 C   0  0  0  0  0  0  0  0  0  0  0  0
    6.5417   -0.7189    0.0000 C   0  0  0  0  0  0  0  0  0  0  0  0
    5.8272   -0.3064    0.0000 C   0  0  0  0  0  0  0  0  0  0  0  0
    8.0367    0.7700    0.0000 C   0  0  0  0  0  0  0  0  0  0  0  0
    6.5417    0.9311    0.0000 C   0  0  0  0  0  0  0  0  0  0  0  0
    8.0367   -0.5579    0.0000 C   0  0  0  0  0  0  0  0  0  0  0  0
    5.8272    0.5186    0.0000 C   0  0  0  0  0  0  0  0  0  0  0  0
    5.0765   -0.7246    0.0000 C   0  0  0  0  0  0  0  0  0  0  0  0
    8.5182    0.1061    0.0000 C   0  0  0  0  0  0  0  0  0  0  0  0
    6.5549   -1.5782    0.0000 C   0  0  0  0  0  0  0  0  0  0  0  0
    7.2561    1.3436    0.0000 C   0  0  0  0  0  0  0  0  0  0  0  0
    5.8140   -2.0136    0.0000 C   0  0  0  0  0  0  0  0  0  0  0  0
    5.0698   -1.5839    0.0000 C   0  0  0  0  0  0  0  0  0  0  0  0
    4.3118   -0.2592    0.0000 C   0  0  0  0  0  0  0  0  0  0  0  0
    6.5417    1.7561    0.0000 C   0  0  0  0  0  0  0  0  0  0  0  0
    8.7051    1.2538    0.0000 C   0  0  0  0  0  0  0  0  0  0  0  0
    3.5298   -0.6948    0.0000 C   0  0  0  0  0  0  0  0  0  0  0  0
    4.2981   -2.0374    0.0000 C   0  0  0  0  0  0  0  0  0  0  0  0
    3.5229   -1.5899    0.0000 C   0  0  0  0  0  0  0  0  0  0  0  0
    9.3733    1.7375    0.0000 C   0  0  0  0  0  0  0  0  0  0  0  0
  8  1  1  1
  2  3  1  0
  3 23  2  3
  4  5  1  0
  4  8  1  0
  4  9  1  0
  4 15  1  1
  5  6  1  0
  5 10  1  1
  6  7  1  0
  6 14  1  6
  7 11  1  1
  7 12  1  0
  8 13  1  0
  8 20  1  0
  9 11  1  0
 10 13  1  0
 12 17  1  0
 12 18  1  6
 14 16  1  0
 15 19  1  0
 16 17  1  0
 17 22  2  0
 18 21  1  0
 20 24  3  0
 21 23  1  0
 22 23  1  0
M  END
$$$$
