
     RDKit          2D

 24 26  0  0  0  0  0  0  0  0999 V2000
   -0.4369   -0.4125    0.0000 C   0  0  0  0  0  0  0  0  0  0  0  0
   -0.4369    0.4125    0.0000 C   0  0  0  0  0  0  0  0  0  0  0  0
   -1.1513    0.8250    0.0000 C   0  0  0  0  0  0  0  0  0  0  0  0
   -1.8658    0.4125    0.0000 C   0  0  0  0  0  0  0  0  0  0  0  0
   -1.8658   -0.4125    0.0000 C   0  0  0  0  0  0  0  0  0  0  0  0
   -2.5803   -0.8250    0.0000 C   0  0  0  0  0  0  0  0  0  0  0  0
   -3.2947   -0.4125    0.0000 C   0  0  0  0  0  0  0  0  0  0  0  0
   -4.0794   -0.6674    0.0000 O   0  0  0  0  0  0  0  0  0  0  0  0
   -4.5643    0.0000    0.0000 C   0  0  0  0  0  0  0  0  0  0  0  0
   -4.0794    0.6673    0.0000 O   0  0  0  0  0  0  0  0  0  0  0  0
   -3.2947    0.4125    0.0000 C   0  0  0  0  0  0  0  0  0  0  0  0
   -2.5803    0.8250    0.0000 C   0  0  0  0  0  0  0  0  0  0  0  0
    0.2775    0.8250    0.0000 N   0  0  0  0  0  0  0  0  0  0  0  0
    0.9920    0.4125    0.0000 C   0  0  0  0  0  0  0  0  0  0  0  0
    1.7065    0.8250    0.0000 C   0  0  0  0  0  0  0  0  0  0  0  0
    1.7065    1.6500    0.0000 O   0  0  0  0  0  0  0  0  0  0  0  0
    2.4209    0.4125    0.0000 C   0  0  0  0  0  0  0  0  0  0  0  0
    3.1354    0.8250    0.0000 C   0  0  0  0  0  0  0  0  0  0  0  0
    3.8499    0.4125    0.0000 C   0  0  0  0  0  0  0  0  0  0  0  0
    3.8499   -0.4125    0.0000 C   0  0  0  0  0  0  0  0  0  0  0  0
    4.5643   -0.8250    0.0000 O   0  0  0  0  0  0  0  0  0  0  0  0
    3.1354   -0.8250    0.0000 C   0  0  0  0  0  0  0  0  0  0  0  0
    3.1354   -1.6500    0.0000 O   0  0  0  0  0  0  0  0  0  0  0  0
    2.4209   -0.4125    0.0000 C   0  0  0  0  0  0  0  0  0  0  0  0
  1  2  1  0
  2  3  1  0
  3  4  1  0
  4  5  2  0
  5  6  1  0
  6  7  2  0
  7  8  1  0
  8  9  1  0
  9 10  1  0
 10 11  1  0
  7 11  1  0
 11 12  2  0
  4 12  1  0
  2 13  1  0
 13 14  1  0
 14 15  1  0
 15 16  1  0
 15 17  1  0
 17 18  2  0
 18 19  1  0
 19 20  2  0
 20 21  1  0
 20 22  1  0
 22 23  1  0
 22 24  2  0
 17 24  1  0
M  END
$$$$
