
     RDKit          2D

117124  0  0  0  0  0  0  0  0999 V2000
    7.1739   -1.2936    0.0000 N   0  0  0  0  0  0  0  0  0  0  0  0
    1.8080    5.6679    0.0000 N   0  0  0  0  0  0  0  0  0  0  0  0
    6.4616   -0.8893    0.0000 C   0  0  0  0  0  0  0  0  0  0  0  0
    0.9747    5.6804    0.0000 C   0  0  0  0  0  0  0  0  0  0  0  0
    8.6071   -1.2936    0.0000 C   0  0  0  0  0  0  0  0  0  0  0  0
    0.5498    4.9680    0.0000 N   0  0  0  0  0  0  0  0  0  0  0  0
    2.2080    4.9430    0.0000 C   0  0  0  0  0  0  0  0  0  0  0  0
   -2.1247   -0.8810    0.0000 C   0  0  0  0  0  0  0  0  0  0  0  0
    7.8946   -0.8810    0.0000 C   0  0  0  0  0  0  0  0  0  0  0  0
    0.9497    4.2474    0.0000 C   0  0  0  0  0  0  0  0  0  0  0  0
   -4.2744   -1.2936    0.0000 C   0  0  0  0  0  0  0  0  0  0  0  0
    4.3202   -1.3018    0.0000 C   0  0  0  0  0  0  0  0  0  0  0  0
    2.1747   -0.8893    0.0000 C   0  0  0  0  0  0  0  0  0  0  0  0
   -6.4282   -0.8810    0.0000 C   0  0  0  0  0  0  0  0  0  0  0  0
    0.0332   -1.3018    0.0000 C   0  0  0  0  0  0  0  0  0  0  0  0
   -8.5862   -1.2936    0.0000 C   0  0  0  0  0  0  0  0  0  0  0  0
    0.5248    3.5350    0.0000 C   0  0  0  0  0  0  0  0  0  0  0  0
   -3.5494   -0.8810    0.0000 N   0  0  0  0  0  0  0  0  0  0  0  0
   -2.8370   -1.3018    0.0000 C   0  0  0  0  0  0  0  0  0  0  0  0
   -1.3997   -1.3018    0.0000 N   0  0  0  0  0  0  0  0  0  0  0  0
    0.7498   -0.8893    0.0000 N   0  0  0  0  0  0  0  0  0  0  0  0
   -5.7116   -1.2936    0.0000 N   0  0  0  0  0  0  0  0  0  0  0  0
    2.8953   -1.3018    0.0000 N   0  0  0  0  0  0  0  0  0  0  0  0
   -7.8656   -0.8810    0.0000 N   0  0  0  0  0  0  0  0  0  0  0  0
    5.0367   -0.8893    0.0000 N   0  0  0  0  0  0  0  0  0  0  0  0
    1.7747    4.2306    0.0000 C   0  0  0  0  0  0  0  0  0  0  0  0
    9.3194   -0.8893    0.0000 N   0  0  0  0  0  0  0  0  0  0  0  0
   -0.6874   -0.8810    0.0000 C   0  0  0  0  0  0  0  0  0  0  0  0
    1.4623   -1.3018    0.0000 C   0  0  0  0  0  0  0  0  0  0  0  0
   -7.1489   -1.2936    0.0000 C   0  0  0  0  0  0  0  0  0  0  0  0
   -4.9910   -0.8810    0.0000 C   0  0  0  0  0  0  0  0  0  0  0  0
    3.6077   -0.8893    0.0000 C   0  0  0  0  0  0  0  0  0  0  0  0
    2.6703   -5.6887    0.0000 C   0  0  0  0  0  0  0  0  0  0  0  0
    5.7492   -1.3018    0.0000 C   0  0  0  0  0  0  0  0  0  0  0  0
   -9.2987   -0.8810    0.0000 C   0  0  0  0  0  0  0  0  0  0  0  0
   10.7485   -0.8893    0.0000 C   0  0  0  0  0  0  0  0  0  0  0  0
  -10.0153   -1.2936    0.0000 N   0  0  0  0  0  0  0  0  0  0  0  0
    0.9455    2.8225    0.0000 N   0  0  0  0  0  0  0  0  0  0  0  0
  -10.7359   -0.8768    0.0000 C   0  0  0  0  0  0  0  0  0  0  0  0
   10.0361   -1.3018    0.0000 C   0  0  0  0  0  0  0  0  0  0  0  0
    3.0870   -4.9763    0.0000 N   0  0  0  0  0  0  0  0  0  0  0  0
    6.4616   -0.0562    0.0000 O   0  0  0  0  0  0  0  0  0  0  0  0
    0.5749    6.4053    0.0000 O   0  0  0  0  0  0  0  0  0  0  0  0
    8.6071   -2.1184    0.0000 O   0  0  0  0  0  0  0  0  0  0  0  0
   -9.2987   -0.0520    0.0000 C   0  0  0  0  0  0  0  0  0  0  0  0
   -2.1247   -0.0562    0.0000 O   0  0  0  0  0  0  0  0  0  0  0  0
   -6.4282   -0.0520    0.0000 O   0  0  0  0  0  0  0  0  0  0  0  0
   -4.2744   -2.1267    0.0000 O   0  0  0  0  0  0  0  0  0  0  0  0
    4.3202   -2.1267    0.0000 O   0  0  0  0  0  0  0  0  0  0  0  0
    0.0332   -2.1309    0.0000 O   0  0  0  0  0  0  0  0  0  0  0  0
   -8.5862   -2.1267    0.0000 O   0  0  0  0  0  0  0  0  0  0  0  0
    2.1747   -0.0562    0.0000 O   0  0  0  0  0  0  0  0  0  0  0  0
   -0.3041    3.5557    0.0000 O   0  0  0  0  0  0  0  0  0  0  0  0
   -8.9112    2.0934    0.0000 C   0  0  0  0  0  0  0  0  0  0  0  0
    3.0370    4.9222    0.0000 O   0  0  0  0  0  0  0  0  0  0  0  0
   -7.1489   -2.1267    0.0000 C   0  0  0  0  0  0  0  0  0  0  0  0
    1.4623   -2.1267    0.0000 C   0  0  0  0  0  0  0  0  0  0  0  0
   -0.6874   -0.0562    0.0000 C   0  0  0  0  0  0  0  0  0  0  0  0
   -8.8904    0.6687    0.0000 C   0  0  0  0  0  0  0  0  0  0  0  0
   -4.9910   -0.0520    0.0000 C   0  0  0  0  0  0  0  0  0  0  0  0
   -9.3112    1.3811    0.0000 C   0  0  0  0  0  0  0  0  0  0  0  0
    1.8455   -5.6804    0.0000 O   0  0  0  0  0  0  0  0  0  0  0  0
   10.7485   -0.0562    0.0000 O   0  0  0  0  0  0  0  0  0  0  0  0
    3.6077   -0.0562    0.0000 C   0  0  0  0  0  0  0  0  0  0  0  0
   -4.6035    2.0851    0.0000 N   0  0  0  0  0  0  0  0  0  0  0  0
  -10.7359   -0.0437    0.0000 O   0  0  0  0  0  0  0  0  0  0  0  0
   -8.0780    2.1059    0.0000 C   0  0  0  0  0  0  0  0  0  0  0  0
    0.5374    2.1059    0.0000 C   0  0  0  0  0  0  0  0  0  0  0  0
    3.0745   -6.4053    0.0000 N   0  0  0  0  0  0  0  0  0  0  0  0
   -7.6614    1.3977    0.0000 C   0  0  0  0  0  0  0  0  0  0  0  0
   11.4608   -1.2936    0.0000 N   0  0  0  0  0  0  0  0  0  0  0  0
    7.1739   -0.4687    0.0000 C   0  0  0  0  0  0  0  0  0  0  0  0
    2.6745   -4.2556    0.0000 C   0  0  0  0  0  0  0  0  0  0  0  0
   -0.2749    0.6687    0.0000 C   0  0  0  0  0  0  0  0  0  0  0  0
    1.8746   -2.8391    0.0000 C   0  0  0  0  0  0  0  0  0  0  0  0
   -6.9365   -2.9266    0.0000 C   0  0  0  0  0  0  0  0  0  0  0  0
   -8.0655    0.6811    0.0000 C   0  0  0  0  0  0  0  0  0  0  0  0
   -6.5115   -4.5180    0.0000 C   0  0  0  0  0  0  0  0  0  0  0  0
   -4.5868    0.6687    0.0000 C   0  0  0  0  0  0  0  0  0  0  0  0
    7.1739   -4.6013    0.0000 N   0  0  0  0  0  0  0  0  0  0  0  0
   -6.2991   -5.3179    0.0000 Cl  0  0  0  0  0  0  0  0  0  0  0  0
   -2.8370   -2.1309    0.0000 C   0  0  0  0  0  0  0  0  0  0  0  0
   -0.2916    2.0934    0.0000 C   0  0  0  0  0  0  0  0  0  0  0  0
    0.9581    1.3935    0.0000 C   0  0  0  0  0  0  0  0  0  0  0  0
    1.8579   -4.2556    0.0000 C   0  0  0  0  0  0  0  0  0  0  0  0
    3.0953   -3.5515    0.0000 C   0  0  0  0  0  0  0  0  0  0  0  0
   -7.5239   -3.5057    0.0000 C   0  0  0  0  0  0  0  0  0  0  0  0
   -6.1407   -3.1307    0.0000 C   0  0  0  0  0  0  0  0  0  0  0  0
    0.5498    0.6729    0.0000 C   0  0  0  0  0  0  0  0  0  0  0  0
    2.6871   -2.8391    0.0000 C   0  0  0  0  0  0  0  0  0  0  0  0
   -0.6999    1.3727    0.0000 C   0  0  0  0  0  0  0  0  0  0  0  0
    1.4498   -3.5432    0.0000 C   0  0  0  0  0  0  0  0  0  0  0  0
   -5.9242   -3.9306    0.0000 C   0  0  0  0  0  0  0  0  0  0  0  0
   -7.3115   -4.3014    0.0000 C   0  0  0  0  0  0  0  0  0  0  0  0
    7.8946   -0.0562    0.0000 C   0  0  0  0  0  0  0  0  0  0  0  0
   -2.1164   -2.5433    0.0000 O   0  0  0  0  0  0  0  0  0  0  0  0
   -5.0034    1.3685    0.0000 C   0  0  0  0  0  0  0  0  0  0  0  0
    7.3864    0.3312    0.0000 C   0  0  0  0  0  0  0  0  0  0  0  0
    5.7492   -2.1267    0.0000 C   0  0  0  0  0  0  0  0  0  0  0  0
    4.0119    0.6561    0.0000 C   0  0  0  0  0  0  0  0  0  0  0  0
  -11.4608   -1.2893    0.0000 C   0  0  0  0  0  0  0  0  0  0  0  0
   -3.7744    2.0976    0.0000 C   0  0  0  0  0  0  0  0  0  0  0  0
    6.4616   -5.0138    0.0000 C   0  0  0  0  0  0  0  0  0  0  0  0
   10.0361   -2.1267    0.0000 C   0  0  0  0  0  0  0  0  0  0  0  0
   -9.3362    2.8059    0.0000 C   0  0  0  0  0  0  0  0  0  0  0  0
    7.1739   -3.7765    0.0000 C   0  0  0  0  0  0  0  0  0  0  0  0
   -7.6739    2.8308    0.0000 C   0  0  0  0  0  0  0  0  0  0  0  0
   -3.7620    0.6729    0.0000 C   0  0  0  0  0  0  0  0  0  0  0  0
    6.4616   -2.5390    0.0000 C   0  0  0  0  0  0  0  0  0  0  0  0
    6.4616   -3.3640    0.0000 C   0  0  0  0  0  0  0  0  0  0  0  0
    4.8367    0.6603    0.0000 C   0  0  0  0  0  0  0  0  0  0  0  0
    3.5952    1.3685    0.0000 C   0  0  0  0  0  0  0  0  0  0  0  0
    6.4616   -5.8387    0.0000 C   0  0  0  0  0  0  0  0  0  0  0  0
    5.7492   -4.6013    0.0000 C   0  0  0  0  0  0  0  0  0  0  0  0
   -3.3620    1.3935    0.0000 C   0  0  0  0  0  0  0  0  0  0  0  0
   -8.9362    3.5307    0.0000 C   0  0  0  0  0  0  0  0  0  0  0  0
   -8.0988    3.5433    0.0000 C   0  0  0  0  0  0  0  0  0  0  0  0
  2  7  1  0
  3  1  1  0
  4  6  1  0
  9  5  1  1
  6 10  1  0
  7 26  1  0
  8 20  1  0
  9  1  1  0
 10 17  1  1
 11 18  1  0
 12 25  1  0
 13 23  1  0
 14 22  1  0
 15 21  1  0
 16 24  1  0
 17 38  1  0
 19 18  1  0
 19  8  1  0
 28 20  1  0
 29 21  1  0
 31 22  1  0
 32 23  1  0
 30 24  1  0
 34 25  1  0
 10 26  1  0
 27  5  1  0
 28 15  1  0
 29 13  1  0
 30 14  1  0
 31 11  1  0
 32 12  1  0
 33 41  1  0
 34  3  1  0
 35 16  1  0
 36 40  1  0
 35 37  1  0
 38 68  1  0
 39 37  1  0
 40 27  1  0
 41 73  1  0
 42  3  2  0
 43  4  2  0
 44  5  2  0
 35 45  1  6
 46  8  2  0
 47 14  2  0
 48 11  2  0
 49 12  2  0
 50 15  2  0
 51 16  2  0
 52 13  2  0
 53 17  2  0
 54 61  2  0
 55  7  2  0
 30 56  1  1
 29 57  1  1
 28 58  1  1
 59 45  1  0
 31 60  1  6
 61 59  1  0
 62 33  2  0
 63 36  2  0
 32 64  1  1
 65 97  2  0
 66 39  2  0
 67 70  2  0
 68 83  2  0
 69 33  1  0
 70 77  1  0
 71 36  1  0
 72  1  1  0
 73 85  2  0
 74 58  1  0
 75 57  1  0
 76 56  1  0
 77 59  2  0
 78 93  2  0
 79 60  1  0
 80106  1  0
 81 78  1  0
 19 82  1  6
 83 91  1  0
 84 89  2  0
 85 92  1  0
 86 90  2  0
 87 76  1  0
 88 76  2  0
 89 74  1  0
 90 75  1  0
 91 74  2  0
 92 75  2  0
 93 88  1  0
 94 87  2  0
  9 95  1  0
 96 82  1  0
 97 79  1  0
 98 72  1  0
 34 99  1  6
100 64  1  0
101 39  1  0
102115  2  0
103 80  1  0
 40104  1  1
105 54  1  0
106110  1  0
107 67  1  0
108 79  2  0
109 99  1  0
110109  1  0
111100  1  0
112100  1  0
113103  1  0
114103  1  0
115108  1  0
116105  2  0
117107  2  0
 98 95  1  0
 73 86  1  0
 68 84  1  0
  2  4  1  0
102 65  1  0
 78 94  1  0
 67 54  1  0
117116  1  0
M  END
$$$$
