
     RDKit          2D

 42 43  0  0  0  0  0  0  0  0999 V2000
    0.4953    4.2330    0.0000 C   0  0  0  0  0  0  0  0  0  0  0  0
   -0.0990   -4.1186    0.0000 C   0  0  0  0  0  0  0  0  0  0  0  0
    0.2972    0.4576    0.0000 C   0  0  0  0  0  0  0  0  0  0  0  0
    0.0990   -0.3432    0.0000 C   0  0  0  0  0  0  0  0  0  0  0  0
   -0.0990    1.8305    0.0000 C   0  0  0  0  0  0  0  0  0  0  0  0
    0.4953   -1.7161    0.0000 C   0  0  0  0  0  0  0  0  0  0  0  0
    1.2880    1.4872    0.0000 C   0  0  0  0  0  0  0  0  0  0  0  0
   -0.8917   -1.3728    0.0000 C   0  0  0  0  0  0  0  0  0  0  0  0
    1.6843    0.1144    0.0000 C   0  0  0  0  0  0  0  0  0  0  0  0
   -1.2880    0.0000    0.0000 C   0  0  0  0  0  0  0  0  0  0  0  0
   -1.4861    2.1737    0.0000 C   0  0  0  0  0  0  0  0  0  0  0  0
    1.8825   -2.0593    0.0000 C   0  0  0  0  0  0  0  0  0  0  0  0
    0.2972    3.4322    0.0000 C   0  0  0  0  0  0  0  0  0  0  0  0
    0.0990   -3.3178    0.0000 C   0  0  0  0  0  0  0  0  0  0  0  0
    0.6935    2.0593    0.0000 C   0  0  0  0  0  0  0  0  0  0  0  0
   -0.2972   -1.9449    0.0000 C   0  0  0  0  0  0  0  0  0  0  0  0
   -0.6935    2.4025    0.0000 C   0  0  0  0  0  0  0  0  0  0  0  0
    1.0898   -2.2881    0.0000 C   0  0  0  0  0  0  0  0  0  0  0  0
    2.4769    0.3432    0.0000 C   0  0  0  0  0  0  0  0  0  0  0  0
   -2.0806   -0.2288    0.0000 C   0  0  0  0  0  0  0  0  0  0  0  0
    0.8917    2.8601    0.0000 C   0  0  0  0  0  0  0  0  0  0  0  0
   -0.4953   -2.7457    0.0000 C   0  0  0  0  0  0  0  0  0  0  0  0
   -0.4953    3.2033    0.0000 N   0  0  0  0  0  0  0  0  0  0  0  0
    0.8917   -3.0889    0.0000 N   0  0  0  0  0  0  0  0  0  0  0  0
    1.0898    0.6864    0.0000 N   0  0  0  0  0  0  0  0  0  0  0  0
   -0.6935   -0.5720    0.0000 N   0  0  0  0  0  0  0  0  0  0  0  0
    2.6751    1.1440    0.0000 O   0  0  0  0  0  0  0  0  0  0  0  0
    3.0714   -0.2288    0.0000 O   0  0  0  0  0  0  0  0  0  0  0  0
   -2.2788   -1.0296    0.0000 O   0  0  0  0  0  0  0  0  0  0  0  0
   -2.6751    0.3432    0.0000 O   0  0  0  0  0  0  0  0  0  0  0  0
    1.6843    3.0889    0.0000 O   0  0  0  0  0  0  0  0  0  0  0  0
   -1.2880   -2.9745    0.0000 O   0  0  0  0  0  0  0  0  0  0  0  0
   -3.6659    2.2881    0.0000 O   0  0  0  0  0  0  0  0  0  0  0  0
   -2.6444    1.7243    0.0000 O   0  0  0  0  0  0  0  0  0  0  0  0
   -3.1021    3.3095    0.0000 O   0  0  0  0  0  0  0  0  0  0  0  0
    3.0796   -3.6303    0.0000 O   0  0  0  0  0  0  0  0  0  0  0  0
    2.0806   -4.2330    0.0000 O   0  0  0  0  0  0  0  0  0  0  0  0
    1.4779   -3.2340    0.0000 O   0  0  0  0  0  0  0  0  0  0  0  0
   -2.0806    2.7457    0.0000 O   0  0  0  0  0  0  0  0  0  0  0  0
    2.4769   -2.6313    0.0000 O   0  0  0  0  0  0  0  0  0  0  0  0
   -2.8732    2.5169    0.0000 P   0  0  0  0  0  0  0  0  0  0  0  0
    2.2788   -3.4322    0.0000 P   0  0  0  0  0  0  0  0  0  0  0  0
  4  3  1  0
 13  1  1  0
 14  2  1  0
 15  5  2  0
 15  7  1  0
 16  6  2  0
 16  8  1  0
 17  5  1  0
 17 11  1  0
 18  6  1  0
 18 12  1  0
 19  9  1  0
 20 10  1  0
 21 13  2  0
 21 15  1  0
 22 14  2  0
 22 16  1  0
 23 13  1  0
 23 17  2  0
 24 14  1  0
 24 18  2  0
 25  3  1  0
 25  7  1  0
 25  9  1  0
 26  4  1  0
 26  8  1  0
 26 10  1  0
 27 19  2  0
 28 19  1  0
 29 20  2  0
 30 20  1  0
 31 21  1  0
 32 22  1  0
 39 11  1  0
 40 12  1  0
 41 33  1  0
 41 34  1  0
 41 35  2  0
 41 39  1  0
 42 36  1  0
 42 37  1  0
 42 38  2  0
 42 40  1  0
M  CHG  2  28  -1  30  -1
M  END
$$$$
