
     RDKit          2D

 59 62  0  0  1  0  0  0  0  0999 V2000
   -3.1076   -0.0468    0.0000 C   0  0  0  0  0  0  0  0  0  0  0  0
   -3.1076    5.7282    0.0000 C   0  0  0  0  0  0  0  0  0  0  0  0
   -0.2497   -1.6968    0.0000 C   0  0  0  0  0  0  0  0  0  0  0  0
   -4.7493   -0.5388    0.0000 C   0  0  0  0  0  0  0  0  0  0  0  0
   -5.7691   -3.6773    0.0000 C   0  0  0  0  0  0  0  0  0  0  0  0
   -3.7238   -2.3238    0.0000 C   0  0  0  0  0  0  0  0  0  0  0  0
   -0.9642   -2.9343    0.0000 C   0  0  0  0  0  0  0  0  0  0  0  0
   -2.3931   -2.9343    0.0000 C   0  0  0  0  0  0  0  0  0  0  0  0
   -7.7223   -0.4403    0.0000 C   0  0  0  0  0  0  0  0  0  0  0  0
   -8.0194    0.9574    0.0000 C   0  0  0  0  0  0  0  0  0  0  0  0
   -5.9655    3.2532    0.0000 C   0  0  0  0  0  0  0  0  0  0  0  0
   -1.6787    3.2532    0.0000 C   0  0  0  0  0  0  0  0  0  0  0  0
   -2.3931    3.6657    0.0000 C   0  0  0  0  0  0  0  0  0  0  0  0
   -1.6787    2.4282    0.0000 C   0  0  0  0  0  0  0  0  0  0  0  0
   -2.3931    4.4907    0.0000 C   0  0  0  0  0  0  0  0  0  0  0  0
   -2.3931    2.0157    0.0000 C   0  0  0  0  0  0  0  0  0  0  0  0
   -2.3931   -1.2843    0.0000 C   0  0  0  0  0  0  0  0  0  0  0  0
   -2.3931   -0.4593    0.0000 C   0  0  0  0  0  0  0  0  0  0  0  0
   -4.5365    1.6032    0.0000 C   0  0  0  0  0  0  0  0  0  0  0  0
   -4.5365    0.7782    0.0000 C   0  0  0  0  0  0  0  0  0  0  0  0
   -3.8221    1.1907    0.0000 C   0  0  0  0  0  0  0  0  0  0  0  0
   -5.2510    4.4907    0.0000 C   0  0  0  0  0  0  0  0  0  0  0  0
   -5.0043   -1.3234    0.0000 C   0  0  0  0  0  0  0  0  0  0  0  0
   -3.1076    0.7782    0.0000 C   0  0  0  0  0  0  0  0  0  0  0  0
   -3.1076    4.9032    0.0000 C   0  0  0  0  0  0  0  0  0  0  0  0
   -0.9642   -1.2843    0.0000 C   0  0  0  0  0  0  0  0  0  0  0  0
   -5.3014    0.0743    0.0000 C   0  0  0  0  0  0  0  0  0  0  0  0
   -5.5141   -2.8926    0.0000 C   0  0  0  0  0  0  0  0  0  0  0  0
   -3.8221    2.0157    0.0000 C   0  0  0  0  0  0  0  0  0  0  0  0
   -1.6787   -1.6968    0.0000 C   0  0  0  0  0  0  0  0  0  0  0  0
   -5.2510    3.6657    0.0000 C   0  0  0  0  0  0  0  0  0  0  0  0
   -2.3931    1.1907    0.0000 C   0  0  0  0  0  0  0  0  0  0  0  0
   -4.5365    4.9032    0.0000 C   0  0  0  0  0  0  0  0  0  0  0  0
   -1.6787   -0.0468    0.0000 C   0  0  0  0  0  0  0  0  0  0  0  0
   -5.8112   -1.4949    0.0000 C   0  0  0  0  0  0  0  0  0  0  0  0
   -6.6604    0.5159    0.0000 C   0  0  0  0  0  0  0  0  0  0  0  0
   -6.4054    1.3005    0.0000 C   0  0  0  0  0  0  0  0  0  0  0  0
   -6.1083   -0.0972    0.0000 C   0  0  0  0  0  0  0  0  0  0  0  0
   -4.5365    2.4282    0.0000 C   0  0  0  0  0  0  0  0  0  0  0  0
   -4.5365    3.2532    0.0000 C   0  0  0  0  0  0  0  0  0  0  0  0
   -4.7072   -2.7211    0.0000 C   0  0  0  0  0  0  0  0  0  0  0  0
   -5.5985    1.4720    0.0000 C   0  0  0  0  0  0  0  0  0  0  0  0
   -4.4522   -1.9365    0.0000 C   0  0  0  0  0  0  0  0  0  0  0  0
   -1.6787   -2.5218    0.0000 N   0  0  0  0  0  0  0  0  0  0  0  0
   -7.4673    0.3444    0.0000 N   0  0  0  0  0  0  0  0  0  0  0  0
   -3.8221    0.3657    0.0000 O   0  0  0  0  0  0  0  0  0  0  0  0
   -6.0715    3.7519    0.0000 O   0  0  0  0  0  0  0  0  0  0  0  0
   -4.5365    5.7282    0.0000 O   0  0  0  0  0  0  0  0  0  0  0  0
   -6.9575    1.9136    0.0000 O   0  0  0  0  0  0  0  0  0  0  0  0
   -4.1551   -3.3342    0.0000 O   0  0  0  0  0  0  0  0  0  0  0  0
   -3.9443   -1.2864    0.0000 O   0  0  0  0  0  0  0  0  0  0  0  0
   -5.2510    2.8407    0.0000 O   0  0  0  0  0  0  0  0  0  0  0  0
   -3.8221    4.4907    0.0000 O   0  0  0  0  0  0  0  0  0  0  0  0
   -0.9642   -0.4593    0.0000 O   0  0  0  0  0  0  0  0  0  0  0  0
   -6.0662   -2.2796    0.0000 O   0  0  0  0  0  0  0  0  0  0  0  0
   -5.0464    0.8589    0.0000 O   0  0  0  0  0  0  0  0  0  0  0  0
   -1.6787    0.7782    0.0000 O   0  0  0  0  0  0  0  0  0  0  0  0
   -6.3633   -0.8818    0.0000 O   0  0  0  0  0  0  0  0  0  0  0  0
   -5.3435    2.2566    0.0000 O   0  0  0  0  0  0  0  0  0  0  0  0
 13 12  2  0
 14 12  1  0
 15 13  1  0
 16 14  2  0
 18 17  1  0
 20 19  1  0
 24  1  1  6
 24 21  1  0
 25  2  1  6
 25 15  1  0
 26  3  1  1
 27  4  1  6
 28  5  1  6
 29 19  1  1
 29 21  1  0
 30 17  1  0
 30 26  1  0
 31 22  1  0
 32 16  1  0
 32 24  1  0
 33 22  1  0
 34 18  1  0
 35 23  1  0
 37 36  1  0
 38 27  1  0
 38 36  1  0
 39 29  1  0
 40 31  1  0
 40 39  1  0
 41 28  1  0
 42 37  1  0
 43  6  1  6
 43 23  1  0
 43 41  1  0
 44  7  1  0
 44  8  1  0
 30 44  1  1
 45  9  1  0
 45 10  1  0
 36 45  1  6
 46 20  2  0
 31 47  1  6
 48 33  2  0
 37 49  1  1
 41 50  1  1
 43 51  1  0
 52 11  1  0
 40 52  1  6
 53 25  1  0
 53 33  1  0
 54 26  1  0
 54 34  1  0
 55 28  1  0
 55 35  1  0
 56 27  1  0
 56 42  1  0
 32 57  1  6
 34 57  1  6
 35 58  1  1
 38 58  1  1
 39 59  1  6
 42 59  1  6
M  END
$$$$
