
     RDKit          2D

 35 37  0  0  1  0  0  0  0  0999 V2000
    4.9205   -3.9640    0.0000 F   0  0  0  0  0  0  0  0  0  0  0  0
    4.0955   -5.3930    0.0000 F   0  0  0  0  0  0  0  0  0  0  0  0
    5.2224   -5.0910    0.0000 F   0  0  0  0  0  0  0  0  0  0  0  0
   10.2738    4.9068    0.0000 O   0  0  0  0  0  0  0  0  0  0  0  0
    7.3659    4.3967    0.0000 O   0  0  0  0  0  0  0  0  0  0  0  0
    3.7935   -1.7909    0.0000 O   0  0  0  0  0  0  0  0  0  0  0  0
    3.7935   -3.4410    0.0000 O   0  0  0  0  0  0  0  0  0  0  0  0
    8.1466    2.9981    0.0000 N   0  0  0  0  0  0  0  0  0  0  0  0
    4.5080    0.2716    0.0000 N   0  0  0  0  0  0  0  0  0  0  0  0
    5.9370    4.3967    0.0000 N   0  0  0  0  0  0  0  0  0  0  0  0
    7.3659    2.7467    0.0000 C   0  0  0  0  0  0  0  0  0  0  0  0
    8.6280    2.3341    0.0000 C   0  0  0  0  0  0  0  0  0  0  0  0
    7.3659    1.9216    0.0000 C   0  0  0  0  0  0  0  0  0  0  0  0
    8.1466    1.6702    0.0000 C   0  0  0  0  0  0  0  0  0  0  0  0
    8.4029    3.7823    0.0000 C   0  0  0  0  0  0  0  0  0  0  0  0
    5.9370    1.9216    0.0000 C   0  0  0  0  0  0  0  0  0  0  0  0
    6.6515    3.1592    0.0000 C   0  0  0  0  0  0  0  0  0  0  0  0
    6.6515    1.5091    0.0000 C   0  0  0  0  0  0  0  0  0  0  0  0
    5.2224    1.5091    0.0000 C   0  0  0  0  0  0  0  0  0  0  0  0
    5.9370    2.7467    0.0000 C   0  0  0  0  0  0  0  0  0  0  0  0
    5.2224    0.6841    0.0000 C   0  0  0  0  0  0  0  0  0  0  0  0
    9.2102    3.9524    0.0000 C   0  0  0  0  0  0  0  0  0  0  0  0
    6.6515    3.9842    0.0000 C   0  0  0  0  0  0  0  0  0  0  0  0
    5.9370    0.2716    0.0000 C   0  0  0  0  0  0  0  0  0  0  0  0
    9.4665    4.7366    0.0000 C   0  0  0  0  0  0  0  0  0  0  0  0
    4.5080   -0.5534    0.0000 C   0  0  0  0  0  0  0  0  0  0  0  0
    3.7935   -0.9659    0.0000 C   0  0  0  0  0  0  0  0  0  0  0  0
    3.0791   -2.2035    0.0000 C   0  0  0  0  0  0  0  0  0  0  0  0
    3.0791   -3.0285    0.0000 C   0  0  0  0  0  0  0  0  0  0  0  0
    2.3645   -1.7909    0.0000 C   0  0  0  0  0  0  0  0  0  0  0  0
    2.3645   -3.4410    0.0000 C   0  0  0  0  0  0  0  0  0  0  0  0
    1.6500   -2.2035    0.0000 C   0  0  0  0  0  0  0  0  0  0  0  0
    1.6500   -3.0285    0.0000 C   0  0  0  0  0  0  0  0  0  0  0  0
    3.7935   -4.2660    0.0000 C   0  0  0  0  0  0  0  0  0  0  0  0
    4.5080   -4.6785    0.0000 C   0  0  0  0  0  0  0  0  0  0  0  0
  1 35  1  0
  2 35  1  0
  3 35  1  0
  4 25  1  0
  5 23  2  0
  6 27  1  0
  6 28  1  0
  7 29  1  0
  7 34  1  0
  8 11  1  0
  8 12  1  0
  8 15  1  0
 21  9  1  0
  9 26  1  0
 10 23  1  0
 11 13  2  0
 11 17  1  0
 12 14  1  0
 13 14  1  0
 13 18  1  0
 15 22  1  0
 16 18  2  0
 16 19  1  0
 16 20  1  0
 17 20  2  0
 17 23  1  0
 19 21  1  0
 21 24  1  1
 22 25  1  0
 26 27  1  0
 28 29  2  0
 28 30  1  0
 29 31  1  0
 30 32  2  0
 31 33  2  0
 32 33  1  0
 34 35  1  0
M  END
$$$$
