154101
     RDKit          2D

 17 18  0  0  1  0  0  0  0  0999 V2000
    3.0791   -1.0313    0.0000 O   0  0  0  0  0  0  0  0  0  0  0  0
    4.5080   -1.0313    0.0000 O   0  0  0  0  0  0  0  0  0  0  0  0
    5.2224    0.2063    0.0000 N   0  0  0  0  0  0  0  0  0  0  0  0
    4.5080    0.6188    0.0000 C   0  0  0  0  0  0  0  0  0  0  0  0
    4.5080    1.4438    0.0000 C   0  0  0  0  0  0  0  0  0  0  0  0
    3.7935    0.2063    0.0000 C   0  0  0  0  0  0  0  0  0  0  0  0
    5.2224    1.8563    0.0000 C   0  0  0  0  0  0  0  0  0  0  0  0
    5.9370    1.4438    0.0000 C   0  0  0  0  0  0  0  0  0  0  0  0
    5.9370    0.6188    0.0000 C   0  0  0  0  0  0  0  0  0  0  0  0
    3.0791    0.6188    0.0000 C   0  0  0  0  0  0  0  0  0  0  0  0
    3.7935   -0.6188    0.0000 C   0  0  0  0  0  0  0  0  0  0  0  0
    2.3645    0.2063    0.0000 C   0  0  0  0  0  0  0  0  0  0  0  0
    3.0791    1.4438    0.0000 C   0  0  0  0  0  0  0  0  0  0  0  0
    1.6500    0.6188    0.0000 C   0  0  0  0  0  0  0  0  0  0  0  0
    2.3645    1.8563    0.0000 C   0  0  0  0  0  0  0  0  0  0  0  0
    1.6500    1.4438    0.0000 C   0  0  0  0  0  0  0  0  0  0  0  0
    3.0791   -1.8563    0.0000 C   0  0  0  0  0  0  0  0  0  0  0  0
  1 11  1  0
  1 17  1  0
  2 11  2  0
  3  4  1  0
  3  9  1  0
  4  5  1  1
  4  6  1  0
  5  7  1  0
  6 10  1  0
  6 11  1  6
  7  8  1  0
  8  9  1  0
 10 12  2  0
 10 13  1  0
 12 14  1  0
 13 15  2  0
 14 16  2  0
 15 16  1  0
M  END
$$$$
