
     RDKit          2D

 18 19  0  0  0  0  0  0  0  0999 V2000
   -3.1320    3.2559    0.0000 C   0  0  0  0  0  0  0  0  0  0  0  0
   -0.4871    4.7179    0.0000 C   0  0  0  0  0  0  0  0  0  0  0  0
   -3.0745    2.4329    0.0000 C   0  0  0  0  0  0  0  0  0  0  0  0
   -2.3635    0.4701    0.0000 C   0  0  0  0  0  0  0  0  0  0  0  0
   -2.3635    1.2951    0.0000 C   0  0  0  0  0  0  0  0  0  0  0  0
   -1.6490    0.0576    0.0000 C   0  0  0  0  0  0  0  0  0  0  0  0
   -0.8245    2.5614    0.0000 C   0  0  0  0  0  0  0  0  0  0  0  0
   -2.0862    3.2322    0.0000 C   0  0  0  0  0  0  0  0  0  0  0  0
   -0.4372    3.2898    0.0000 C   0  0  0  0  0  0  0  0  0  0  0  0
   -1.6989    3.9607    0.0000 C   0  0  0  0  0  0  0  0  0  0  0  0
   -0.9345    1.2951    0.0000 C   0  0  0  0  0  0  0  0  0  0  0  0
   -1.6490    1.7076    0.0000 C   0  0  0  0  0  0  0  0  0  0  0  0
   -0.9345    0.4701    0.0000 C   0  0  0  0  0  0  0  0  0  0  0  0
   -2.3330    2.0713    0.0000 C   0  0  0  0  0  0  0  0  0  0  0  0
   -1.6490    2.5326    0.0000 C   0  0  0  0  0  0  0  0  0  0  0  0
   -0.8744    3.9894    0.0000 N   0  0  0  0  0  0  0  0  0  0  0  0
   -0.2201    0.0576    0.0000 O   0  0  0  0  0  0  0  0  0  0  0  0
   -2.7701    1.3716    0.0000 O   0  0  0  0  0  0  0  0  0  0  0  0
  3  1  1  0
  5  4  2  0
  6  4  1  0
  9  7  1  0
 10  8  1  0
 12  5  1  0
 12 11  2  0
 13  6  2  0
 13 11  1  0
 14  3  1  0
 15  7  1  0
 15  8  1  0
 15 12  1  0
 15 14  1  0
 16  2  1  0
 16  9  1  0
 16 10  1  0
 17 13  1  0
 18 14  2  0
M  END
$$$$
