
     RDKit          2D

 31 33  0  0  1  0  0  0  0  0999 V2000
    5.5541    3.5789    0.0000 O   0  0  0  0  0  0  0  0  0  0  0  0
    4.5080   -1.9751    0.0000 O   0  0  0  0  0  0  0  0  0  0  0  0
    2.3645   -4.0376    0.0000 O   0  0  0  0  0  0  0  0  0  0  0  0
    1.6500   -2.8001    0.0000 O   0  0  0  0  0  0  0  0  0  0  0  0
    3.0791    0.5000    0.0000 N   0  0  0  0  0  0  0  0  0  0  0  0
    3.0791   -1.9751    0.0000 N   0  0  0  0  0  0  0  0  0  0  0  0
    3.0791    2.1500    0.0000 C   0  0  0  0  0  0  0  0  0  0  0  0
    2.3645    1.7375    0.0000 C   0  0  0  0  0  0  0  0  0  0  0  0
    3.7935    1.7375    0.0000 C   0  0  0  0  0  0  0  0  0  0  0  0
    2.3645    0.9125    0.0000 C   0  0  0  0  0  0  0  0  0  0  0  0
    3.7935    0.9125    0.0000 C   0  0  0  0  0  0  0  0  0  0  0  0
    3.4916    2.8645    0.0000 C   0  0  0  0  0  0  0  0  0  0  0  0
    2.6665    2.8645    0.0000 C   0  0  0  0  0  0  0  0  0  0  0  0
    1.6500    2.1500    0.0000 C   0  0  0  0  0  0  0  0  0  0  0  0
    3.0791   -0.3251    0.0000 C   0  0  0  0  0  0  0  0  0  0  0  0
    3.7935   -0.7376    0.0000 C   0  0  0  0  0  0  0  0  0  0  0  0
    4.3166    2.8645    0.0000 C   0  0  0  0  0  0  0  0  0  0  0  0
    3.0791    3.5789    0.0000 C   0  0  0  0  0  0  0  0  0  0  0  0
    4.5080   -0.3251    0.0000 C   0  0  0  0  0  0  0  0  0  0  0  0
    3.7935   -1.5626    0.0000 C   0  0  0  0  0  0  0  0  0  0  0  0
    4.7291    3.5789    0.0000 C   0  0  0  0  0  0  0  0  0  0  0  0
    3.4916    4.2934    0.0000 C   0  0  0  0  0  0  0  0  0  0  0  0
    4.3166    4.2934    0.0000 C   0  0  0  0  0  0  0  0  0  0  0  0
    5.2224   -0.7376    0.0000 C   0  0  0  0  0  0  0  0  0  0  0  0
    5.9370   -0.3251    0.0000 C   0  0  0  0  0  0  0  0  0  0  0  0
    5.2224   -1.5626    0.0000 C   0  0  0  0  0  0  0  0  0  0  0  0
    3.0791   -2.8001    0.0000 C   0  0  0  0  0  0  0  0  0  0  0  0
    6.6515   -0.7376    0.0000 C   0  0  0  0  0  0  0  0  0  0  0  0
    5.9370   -1.9751    0.0000 C   0  0  0  0  0  0  0  0  0  0  0  0
    6.6515   -1.5626    0.0000 C   0  0  0  0  0  0  0  0  0  0  0  0
    2.3645   -3.2126    0.0000 C   0  0  0  0  0  0  0  0  0  0  0  0
  1 21  1  0
  2 20  2  0
  3 31  1  0
  4 31  2  0
  5 10  1  0
  5 11  1  0
  5 15  1  0
  6 20  1  0
  6 27  1  0
  7  8  1  0
  7  9  1  0
  7 12  1  0
  7 13  1  1
  8 10  1  0
  8 14  1  6
  9 11  1  0
 12 17  2  0
 12 18  1  0
 16 15  1  6
 16 19  1  0
 16 20  1  0
 17 21  1  0
 18 22  2  0
 19 24  1  0
 21 23  2  0
 22 23  1  0
 24 25  2  0
 24 26  1  0
 25 28  1  0
 26 29  2  0
 27 31  1  0
 28 30  2  0
 29 30  1  0
M  END
$$$$
