
     RDKit          2D

121130  0  0  0  0  0  0  0  0999 V2000
    0.3164    6.3965    0.0000 C   0  0  0  0  0  0  0  0  0  0  0  0
    1.0274    5.9782    0.0000 C   0  0  0  0  0  0  0  0  0  0  0  0
    1.7803    6.3965    0.0000 N   0  0  0  0  0  0  0  0  0  0  0  0
    2.4914    5.9782    0.0000 C   0  0  0  0  0  0  0  0  0  0  0  0
    3.2026    6.3965    0.0000 C   0  0  0  0  0  0  0  0  0  0  0  0
    3.9555    5.9782    0.0000 C   0  0  0  0  0  0  0  0  0  0  0  0
    4.6667    6.3965    0.0000 C   0  0  0  0  0  0  0  0  0  0  0  0
    5.3777    5.9782    0.0000 C   0  0  0  0  0  0  0  0  0  0  0  0
    6.1306    6.3965    0.0000 C   0  0  0  0  0  0  0  0  0  0  0  0
    6.8417    5.9782    0.0000 C   0  0  0  0  0  0  0  0  0  0  0  0
    7.5530    6.3965    0.0000 C   0  0  0  0  0  0  0  0  0  0  0  0
    8.3059    5.9782    0.0000 C   0  0  0  0  0  0  0  0  0  0  0  0
    8.9751    6.3965    0.0000 C   0  0  0  0  0  0  0  0  0  0  0  0
   -1.8305    1.8649    0.0000 C   0  0  0  0  0  0  0  0  0  0  0  0
   -1.1159    1.4524    0.0000 C   0  0  0  0  0  0  0  0  0  0  0  0
   -2.5450    1.4524    0.0000 C   0  0  0  0  0  0  0  0  0  0  0  0
   -1.8305    0.2149    0.0000 C   0  0  0  0  0  0  0  0  0  0  0  0
   -2.5450    0.6274    0.0000 C   0  0  0  0  0  0  0  0  0  0  0  0
   -1.1159    0.6274    0.0000 C   0  0  0  0  0  0  0  0  0  0  0  0
   -0.4015    1.8649    0.0000 O   0  0  0  0  0  0  0  0  0  0  0  0
   -3.2594    1.8649    0.0000 O   0  0  0  0  0  0  0  0  0  0  0  0
   -6.1172    0.2149    0.0000 C   0  0  0  0  0  0  0  0  0  0  0  0
    2.4561    0.2149    0.0000 C   0  0  0  0  0  0  0  0  0  0  0  0
   -5.4028    0.6274    0.0000 C   0  0  0  0  0  0  0  0  0  0  0  0
    1.7417    0.6274    0.0000 C   0  0  0  0  0  0  0  0  0  0  0  0
   -3.9738    1.4525    0.0000 C   0  0  0  0  0  0  0  0  0  0  0  0
    0.3128    1.4524    0.0000 C   0  0  0  0  0  0  0  0  0  0  0  0
   -3.9739    0.6274    0.0000 C   0  0  0  0  0  0  0  0  0  0  0  0
    1.0272    1.8648    0.0000 C   0  0  0  0  0  0  0  0  0  0  0  0
    1.7417    1.4523    0.0000 C   0  0  0  0  0  0  0  0  0  0  0  0
    1.0272    0.2149    0.0000 C   0  0  0  0  0  0  0  0  0  0  0  0
   -5.4028    1.4525    0.0000 C   0  0  0  0  0  0  0  0  0  0  0  0
   -4.6883    1.8650    0.0000 C   0  0  0  0  0  0  0  0  0  0  0  0
    0.3128    0.6274    0.0000 C   0  0  0  0  0  0  0  0  0  0  0  0
    1.0272    2.6898    0.0000 Cl  0  0  0  0  0  0  0  0  0  0  0  0
   -6.8318    0.6274    0.0000 O   0  0  0  0  0  0  0  0  0  0  0  0
   -3.2594    0.2149    0.0000 Cl  0  0  0  0  0  0  0  0  0  0  0  0
    3.1705    0.6273    0.0000 O   0  0  0  0  0  0  0  0  0  0  0  0
   -2.5447    3.9273    0.0000 C   0  0  0  0  0  0  0  0  0  0  0  0
   -2.5449    3.1024    0.0000 C   0  0  0  0  0  0  0  0  0  0  0  0
   -3.2593    4.3398    0.0000 C   0  0  0  0  0  0  0  0  0  0  0  0
   -3.2593    2.6899    0.0000 O   0  0  0  0  0  0  0  0  0  0  0  0
   -1.1159    6.4023    0.0000 C   0  0  0  0  0  0  0  0  0  0  0  0
   -3.9738    3.9274    0.0000 C   0  0  0  0  0  0  0  0  0  0  0  0
   -1.8303    5.1648    0.0000 C   0  0  0  0  0  0  0  0  0  0  0  0
   -3.9738    3.1024    0.0000 C   0  0  0  0  0  0  0  0  0  0  0  0
   -1.1159    5.5773    0.0000 C   0  0  0  0  0  0  0  0  0  0  0  0
   -2.5447    5.5773    0.0000 O   0  0  0  0  0  0  0  0  0  0  0  0
   -1.8303    6.8148    0.0000 C   0  0  0  0  0  0  0  0  0  0  0  0
   -1.8305    4.3398    0.0000 O   0  0  0  0  0  0  0  0  0  0  0  0
   -2.5447    6.4023    0.0000 C   0  0  0  0  0  0  0  0  0  0  0  0
   -3.2593    5.1648    0.0000 O   0  0  0  0  0  0  0  0  0  0  0  0
   -4.6883    4.3399    0.0000 O   0  0  0  0  0  0  0  0  0  0  0  0
   -1.8303    7.6398    0.0000 O   0  0  0  0  0  0  0  0  0  0  0  0
   -0.7034    7.1167    0.0000 C   0  0  0  0  0  0  0  0  0  0  0  0
   -3.2593    6.8148    0.0000 C   0  0  0  0  0  0  0  0  0  0  0  0
   -1.8305    2.6899    0.0000 O   0  0  0  0  0  0  0  0  0  0  0  0
   -4.6883    2.6899    0.0000 C   0  0  0  0  0  0  0  0  0  0  0  0
   -5.4028    3.1024    0.0000 O   0  0  0  0  0  0  0  0  0  0  0  0
   -4.6883    0.2149    0.0000 C   0  0  0  0  0  0  0  0  0  0  0  0
    2.4561   -1.4350    0.0000 C   0  0  0  0  0  0  0  0  0  0  0  0
   -1.1161   -1.8475    0.0000 N   0  0  0  0  0  0  0  0  0  0  0  0
    1.7417   -1.8475    0.0000 C   0  0  0  0  0  0  0  0  0  0  0  0
   -2.5449   -1.8475    0.0000 C   0  0  0  0  0  0  0  0  0  0  0  0
    1.0272   -1.4350    0.0000 N   0  0  0  0  0  0  0  0  0  0  0  0
   -1.8306   -1.4350    0.0000 C   0  0  0  0  0  0  0  0  0  0  0  0
   -0.4015   -1.4350    0.0000 C   0  0  0  0  0  0  0  0  0  0  0  0
    0.3128   -1.8475    0.0000 C   0  0  0  0  0  0  0  0  0  0  0  0
    1.7417   -2.6725    0.0000 O   0  0  0  0  0  0  0  0  0  0  0  0
   -2.5450   -2.6724    0.0000 O   0  0  0  0  0  0  0  0  0  0  0  0
   -0.4015   -0.6100    0.0000 O   0  0  0  0  0  0  0  0  0  0  0  0
    0.3128   -2.6725    0.0000 C   0  0  0  0  0  0  0  0  0  0  0  0
   -0.4015   -3.0850    0.0000 C   0  0  0  0  0  0  0  0  0  0  0  0
   -1.1161   -2.6725    0.0000 N   0  0  0  0  0  0  0  0  0  0  0  0
   -0.4015   -3.9099    0.0000 O   0  0  0  0  0  0  0  0  0  0  0  0
    3.1705   -1.8475    0.0000 N   0  0  0  0  0  0  0  0  0  0  0  0
    3.8851   -1.4350    0.0000 C   0  0  0  0  0  0  0  0  0  0  0  0
    4.5995   -1.8475    0.0000 C   0  0  0  0  0  0  0  0  0  0  0  0
    3.8851   -0.6100    0.0000 O   0  0  0  0  0  0  0  0  0  0  0  0
    5.3139   -1.4350    0.0000 C   0  0  0  0  0  0  0  0  0  0  0  0
    4.5995   -2.6725    0.0000 N   0  0  0  0  0  0  0  0  0  0  0  0
    6.0284   -1.8475    0.0000 C   0  0  0  0  0  0  0  0  0  0  0  0
    5.3139   -3.0850    0.0000 C   0  0  0  0  0  0  0  0  0  0  0  0
    6.0284   -2.6725    0.0000 C   0  0  0  0  0  0  0  0  0  0  0  0
    6.7430   -1.4352    0.0000 C   0  0  0  0  0  0  0  0  0  0  0  0
   -6.1172   -1.4348    0.0000 C   0  0  0  0  0  0  0  0  0  0  0  0
   -3.2594   -1.4350    0.0000 N   0  0  0  0  0  0  0  0  0  0  0  0
   -3.9739   -1.8474    0.0000 C   0  0  0  0  0  0  0  0  0  0  0  0
   -7.5462   -1.4348    0.0000 O   0  0  0  0  0  0  0  0  0  0  0  0
   -5.4028   -1.8474    0.0000 N   0  0  0  0  0  0  0  0  0  0  0  0
   -4.6884   -1.4348    0.0000 C   0  0  0  0  0  0  0  0  0  0  0  0
   -4.6884   -0.6100    0.0000 O   0  0  0  0  0  0  0  0  0  0  0  0
   -8.2607   -2.6724    0.0000 C   0  0  0  0  0  0  0  0  0  0  0  0
   -8.2607   -1.8474    0.0000 O   0  0  0  0  0  0  0  0  0  0  0  0
   -8.9751   -3.0850    0.0000 O   0  0  0  0  0  0  0  0  0  0  0  0
   -7.5463   -3.0849    0.0000 C   0  0  0  0  0  0  0  0  0  0  0  0
   -6.8318   -2.6724    0.0000 N   0  0  0  0  0  0  0  0  0  0  0  0
   -6.8318   -1.8474    0.0000 C   0  0  0  0  0  0  0  0  0  0  0  0
   -4.6997   -4.3342    0.0000 C   0  0  0  0  0  0  0  0  0  0  0  0
   -3.9853   -4.7467    0.0000 C   0  0  0  0  0  0  0  0  0  0  0  0
   -3.9851   -3.0968    0.0000 C   0  0  0  0  0  0  0  0  0  0  0  0
   -4.6997   -3.5093    0.0000 C   0  0  0  0  0  0  0  0  0  0  0  0
   -3.2707   -4.3343    0.0000 C   0  0  0  0  0  0  0  0  0  0  0  0
   -3.2707   -3.5093    0.0000 C   0  0  0  0  0  0  0  0  0  0  0  0
   -3.9853   -5.5718    0.0000 O   0  0  0  0  0  0  0  0  0  0  0  0
   -7.5463   -3.9099    0.0000 C   0  0  0  0  0  0  0  0  0  0  0  0
   -8.2607   -4.3224    0.0000 C   0  0  0  0  0  0  0  0  0  0  0  0
   -7.5463   -5.5599    0.0000 C   0  0  0  0  0  0  0  0  0  0  0  0
   -6.8318   -4.3224    0.0000 C   0  0  0  0  0  0  0  0  0  0  0  0
   -8.2607   -5.1474    0.0000 C   0  0  0  0  0  0  0  0  0  0  0  0
   -8.9751   -5.5599    0.0000 O   0  0  0  0  0  0  0  0  0  0  0  0
   -6.8318   -5.1474    0.0000 C   0  0  0  0  0  0  0  0  0  0  0  0
   -6.1172   -5.5599    0.0000 O   0  0  0  0  0  0  0  0  0  0  0  0
   -7.5463   -6.3849    0.0000 C   0  0  0  0  0  0  0  0  0  0  0  0
   -6.8352   -6.8032    0.0000 N   0  0  0  0  0  0  0  0  0  0  0  0
   -6.0823   -6.3849    0.0000 C   0  0  0  0  0  0  0  0  0  0  0  0
   -5.3711   -6.8032    0.0000 P   0  0  0  0  0  0  0  0  0  0  0  0
   -4.6601   -6.3849    0.0000 O   0  0  0  0  0  0  0  0  0  0  0  0
   -5.3711   -7.6398    0.0000 O   0  0  0  0  0  0  0  0  0  0  0  0
   -4.6601   -7.2215    0.0000 O   0  0  0  0  0  0  0  0  0  0  0  0
   -0.4014    5.9898    0.0000 N   0  0  0  0  0  0  0  0  0  0  0  0
  1  2  1  0
  2  3  1  0
  3  4  1  0
  4  5  1  0
  5  6  1  0
  6  7  1  0
  7  8  1  0
  8  9  1  0
  9 10  1  0
 10 11  1  0
 11 12  1  0
 12 13  1  0
 57 14  1  0
 15 14  1  0
 20 15  1  0
 16 14  2  0
 21 16  1  0
 17 66  1  0
 18 17  2  0
 18 16  1  0
 19 15  2  0
 19 17  1  0
 27 20  1  0
 26 21  1  0
 24 22  1  0
 22 36  1  6
 22 86  1  0
 23 38  1  1
 25 23  1  0
 23 61  1  0
 60 24  1  0
 32 24  2  0
 31 25  1  0
 30 25  2  0
 33 26  2  0
 28 26  1  0
 29 27  2  0
 34 27  1  0
 60 28  2  0
 37 28  1  0
 30 29  1  0
 35 29  1  0
 34 31  2  0
 33 32  1  0
 40 39  1  0
 41 39  1  0
 39 50  1  1
 40 57  1  6
 42 40  1  0
 41 52  1  6
 44 41  1  0
 46 42  1  0
 47 43  1  0
 43 55  1  6
 49 43  1  0
 46 44  1  0
 44 53  1  1
 45 50  1  6
 47 45  1  0
 48 45  1  0
 46 58  1  6
 51 48  1  0
 51 49  1  0
 49 54  1  1
 51 56  1  1
 58 59  1  0
 63 61  1  0
 61 76  1  1
 64 87  1  0
 66 62  1  1
 67 62  1  0
 65 63  1  0
 69 63  2  0
 66 64  1  0
 70 64  2  0
 68 65  1  0
 68 67  1  0
 71 67  2  0
 68 72  1  1
 72 73  1  0
 73 75  2  0
 73 74  1  0
 77 76  1  0
 78 77  1  0
 79 77  2  0
 78 80  1  1
 78 81  1  0
 82 80  1  0
 83 81  1  0
 84 82  1  0
 85 82  1  0
104101  2  0
 88101  1  6
 88 87  1  0
 86 90  1  0
 91 90  1  0
 88 91  1  0
 91 92  2  0
 93 94  2  0
 93 95  1  0
 96 93  1  1
 96106  1  0
 96 97  1  0
 86 98  1  6
 89 98  2  0
 98 97  1  0
100 99  1  0
101102  1  0
102 99  2  0
103104  1  0
103100  2  0
105100  1  0
106107  1  0
106109  2  0
107110  2  0
110108  1  0
108112  2  0
112109  1  0
110111  1  0
112113  1  0
109 99  1  0
114115  1  0
115116  1  0
116117  1  0
117118  1  0
117119  2  0
117120  1  0
108114  1  0
  1121  1  0
 43121  1  0
M  END
$$$$
