
     RDKit          2D

  6  5  0  0  0  0  0  0  0  0999 V2000
    1.8719    1.7490    0.0000 C   0  0  0  0  0  0  0  0  0  0  0  0
    1.1575    0.5115    0.0000 C   0  0  0  0  0  0  0  0  0  0  0  0
    1.1575    1.3365    0.0000 C   0  0  0  0  0  0  0  0  0  0  0  0
    1.8719    2.5740    0.0000 O   0  0  0  0  0  0  0  0  0  0  0  0
    2.5864    1.3365    0.0000 O   0  0  0  0  0  0  0  0  0  0  0  0
    0.4429    1.7490    0.0000 O   0  0  0  0  0  0  0  0  0  0  0  0
  3  1  1  0
  3  2  1  0
  4  1  2  0
  5  1  1  0
  6  3  1  0
M  CHG  1   5  -1
M  END
$$$$
