
     RDKit          2D

 35 39  0  0  0  0  0  0  0  0999 V2000
    1.0881   -1.0518    0.0000 N   0  0  0  0  0  0  0  0  0  0  0  0
    1.5802   -1.7178    0.0000 C   0  0  0  0  0  0  0  0  0  0  0  0
    1.0881   -2.3836    0.0000 C   0  0  0  0  0  0  0  0  0  0  0  0
    0.3064   -2.1327    0.0000 C   0  0  0  0  0  0  0  0  0  0  0  0
    0.3064   -1.3076    0.0000 C   0  0  0  0  0  0  0  0  0  0  0  0
    1.3486   -0.2653    0.0000 C   0  0  0  0  0  0  0  0  0  0  0  0
    2.4053   -1.7178    0.0000 C   0  0  0  0  0  0  0  0  0  0  0  0
   -0.4029   -0.8927    0.0000 C   0  0  0  0  0  0  0  0  0  0  0  0
   -0.4029   -2.5429    0.0000 C   0  0  0  0  0  0  0  0  0  0  0  0
   -3.0085    2.4850    0.0000 N   0  0  0  0  0  0  0  0  0  0  0  0
    2.8107   -1.0036    0.0000 C   0  0  0  0  0  0  0  0  0  0  0  0
    2.8107   -2.4271    0.0000 C   0  0  0  0  0  0  0  0  0  0  0  0
    0.7985    0.3426    0.0000 C   0  0  0  0  0  0  0  0  0  0  0  0
   -1.1170   -2.1327    0.0000 C   0  0  0  0  0  0  0  0  0  0  0  0
    1.3486   -3.1653    0.0000 C   0  0  0  0  0  0  0  0  0  0  0  0
   -1.1170   -1.3076    0.0000 C   0  0  0  0  0  0  0  0  0  0  0  0
    4.0507   -1.7178    0.0000 C   0  0  0  0  0  0  0  0  0  0  0  0
   -0.3064    1.5681    0.0000 C   0  0  0  0  0  0  0  0  0  0  0  0
    3.6358   -2.4271    0.0000 C   0  0  0  0  0  0  0  0  0  0  0  0
    3.6358   -1.0036    0.0000 C   0  0  0  0  0  0  0  0  0  0  0  0
   -0.0119    0.1785    0.0000 C   0  0  0  0  0  0  0  0  0  0  0  0
    1.0543    1.1338    0.0000 C   0  0  0  0  0  0  0  0  0  0  0  0
    0.4945    1.7419    0.0000 C   0  0  0  0  0  0  0  0  0  0  0  0
   -0.5621    0.7865    0.0000 C   0  0  0  0  0  0  0  0  0  0  0  0
   -0.8661    2.1906    0.0000 O   0  0  0  0  0  0  0  0  0  0  0  0
   -2.2123    2.6442    0.0000 C   0  0  0  0  0  0  0  0  0  0  0  0
   -1.8359   -2.5429    0.0000 O   0  0  0  0  0  0  0  0  0  0  0  0
    4.8758   -1.7178    0.0000 O   0  0  0  0  0  0  0  0  0  0  0  0
   -1.6671    2.0313    0.0000 C   0  0  0  0  0  0  0  0  0  0  0  0
   -3.5200    3.1364    0.0000 C   0  0  0  0  0  0  0  0  0  0  0  0
   -3.2160    1.6743    0.0000 C   0  0  0  0  0  0  0  0  0  0  0  0
   -3.9784    1.3510    0.0000 C   0  0  0  0  0  0  0  0  0  0  0  0
   -4.3402    3.1653    0.0000 C   0  0  0  0  0  0  0  0  0  0  0  0
   -4.8758    2.5380    0.0000 C   0  0  0  0  0  0  0  0  0  0  0  0
   -4.7166    1.7273    0.0000 C   0  0  0  0  0  0  0  0  0  0  0  0
  2  1  1  0
  3  2  2  0
  4  5  2  0
  5  1  1  0
  6  1  1  0
  7  2  1  0
  8  5  1  0
  9  4  1  0
 10 26  1  0
 11  7  2  0
 12  7  1  0
 13  6  1  0
 14 16  1  0
 15  3  1  0
 16  8  2  0
 17 19  1  0
 18 24  2  0
 19 12  2  0
 20 11  1  0
 21 13  2  0
 22 13  1  0
 23 22  2  0
 24 21  1  0
 25 18  1  0
 26 29  1  0
 27 14  1  0
 28 17  1  0
 29 25  1  0
 30 10  1  0
 31 10  1  0
 32 31  1  0
 33 30  1  0
 34 33  1  0
 35 32  1  0
  3  4  1  0
 20 17  2  0
 23 18  1  0
  9 14  2  0
 35 34  1  0
M  END
$$$$
