
     RDKit          2D

 52 58  0  0  1  0  0  0  0  0999 V2000
    8.5105   -1.6793    0.0000 C   0  0  0  0  0  0  0  0  0  0  0  0
    9.5861   -0.7386    0.0000 C   0  0  0  0  0  0  0  0  0  0  0  0
    9.6574    3.1971    0.0000 C   0  0  0  0  0  0  0  0  0  0  0  0
    5.2130   -0.2648    0.0000 C   0  0  0  0  0  0  0  0  0  0  0  0
   10.2575    4.4939    0.0000 C   0  0  0  0  0  0  0  0  0  0  0  0
    1.6330   -0.3395    0.0000 C   0  0  0  0  0  0  0  0  0  0  0  0
    2.3538   -0.7409    0.0000 C   0  0  0  0  0  0  0  0  0  0  0  0
    1.1578    0.3349    0.0000 C   0  0  0  0  0  0  0  0  0  0  0  0
    3.1773   -0.7899    0.0000 C   0  0  0  0  0  0  0  0  0  0  0  0
    1.0223    1.1487    0.0000 C   0  0  0  0  0  0  0  0  0  0  0  0
    2.6030    6.2429    0.0000 C   0  0  0  0  0  0  0  0  0  0  0  0
    1.7813    6.1686    0.0000 C   0  0  0  0  0  0  0  0  0  0  0  0
    7.4112    4.2364    0.0000 C   0  0  0  0  0  0  0  0  0  0  0  0
    8.0856    4.7116    0.0000 C   0  0  0  0  0  0  0  0  0  0  0  0
    3.9405   -0.4767    0.0000 C   0  0  0  0  0  0  0  0  0  0  0  0
    4.6071    3.0772    0.0000 C   0  0  0  0  0  0  0  0  0  0  0  0
    5.3760    1.9860    0.0000 C   0  0  0  0  0  0  0  0  0  0  0  0
    6.8854    2.1180    0.0000 C   0  0  0  0  0  0  0  0  0  0  0  0
    0.9980    2.7252    0.0000 C   0  0  0  0  0  0  0  0  0  0  0  0
    7.4120   -0.3517    0.0000 C   0  0  0  0  0  0  0  0  0  0  0  0
    8.7768   -0.8984    0.0000 C   0  0  0  0  0  0  0  0  0  0  0  0
    8.9087    3.5435    0.0000 C   0  0  0  0  0  0  0  0  0  0  0  0
    1.2533    1.9407    0.0000 C   0  0  0  0  0  0  0  0  0  0  0  0
    5.3880    2.8109    0.0000 C   0  0  0  0  0  0  0  0  0  0  0  0
    2.2565    5.4942    0.0000 C   0  0  0  0  0  0  0  0  0  0  0  0
    7.4855    3.4148    0.0000 C   0  0  0  0  0  0  0  0  0  0  0  0
    4.1126    2.4168    0.0000 C   0  0  0  0  0  0  0  0  0  0  0  0
    4.5878    1.7424    0.0000 C   0  0  0  0  0  0  0  0  0  0  0  0
    7.6342    1.7715    0.0000 C   0  0  0  0  0  0  0  0  0  0  0  0
    8.2337   -0.2774    0.0000 C   0  0  0  0  0  0  0  0  0  0  0  0
    8.8343    4.3652    0.0000 C   0  0  0  0  0  0  0  0  0  0  0  0
    6.8111    2.9396    0.0000 C   0  0  0  0  0  0  0  0  0  0  0  0
    8.2342    3.0683    0.0000 C   0  0  0  0  0  0  0  0  0  0  0  0
    3.3918    2.8183    0.0000 C   0  0  0  0  0  0  0  0  0  0  0  0
    7.7085    0.9498    0.0000 C   0  0  0  0  0  0  0  0  0  0  0  0
    4.7233    0.9286    0.0000 C   0  0  0  0  0  0  0  0  0  0  0  0
    1.7307    3.3757    0.0000 C   0  0  0  0  0  0  0  0  0  0  0  0
    1.8051    2.5540    0.0000 C   0  0  0  0  0  0  0  0  0  0  0  0
    8.3086    2.2467    0.0000 N   0  0  0  0  0  0  0  0  0  0  0  0
    8.4169    0.5270    0.0000 N   0  0  0  0  0  0  0  0  0  0  0  0
    2.5683    2.8672    0.0000 N   0  0  0  0  0  0  0  0  0  0  0  0
    2.4051    3.8509    0.0000 N   0  0  0  0  0  0  0  0  0  0  0  0
    4.4923    0.1366    0.0000 N   0  0  0  0  0  0  0  0  0  0  0  0
    3.6228    3.6103    0.0000 O   0  0  0  0  0  0  0  0  0  0  0  0
    5.5468    0.8797    0.0000 O   0  0  0  0  0  0  0  0  0  0  0  0
    0.9820    3.7222    0.0000 O   0  0  0  0  0  0  0  0  0  0  0  0
    3.1525    4.7468    0.0000 O   0  0  0  0  0  0  0  0  0  0  0  0
    1.5092    4.5982    0.0000 O   0  0  0  0  0  0  0  0  0  0  0  0
    9.5087    4.8403    0.0000 O   0  0  0  0  0  0  0  0  0  0  0  0
    6.0624    3.2861    0.0000 O   0  0  0  0  0  0  0  0  0  0  0  0
    7.0874    0.4068    0.0000 S   0  0  0  0  0  0  0  0  0  0  0  0
    2.3308    4.6725    0.0000 S   0  0  0  0  0  0  0  0  0  0  0  0
  7  6  1  0
  8  6  1  0
  9  7  1  0
 10  8  2  0
 12 11  1  0
 14 13  2  0
 15  9  1  0
 21  1  1  0
 21  2  1  0
 22  3  1  0
 23 10  1  6
 23 19  1  0
 24 16  1  0
 24 17  1  0
 25 11  1  0
 25 12  1  0
 26 13  1  0
 27 16  1  6
 28 17  1  1
 28 27  1  0
 29 18  2  0
 30 20  2  0
 30 21  1  0
 31 14  1  0
 31 22  2  0
 32 18  1  0
 32 26  2  0
 33 22  1  0
 33 26  1  0
 34 27  1  0
 35 29  1  0
 36 28  1  0
 38 19  1  0
 38 23  1  0
 38 37  1  6
 39 29  1  0
 39 33  2  0
 40 30  1  0
 40 35  2  0
 41 34  2  0
 41 38  1  0
 42 37  2  3
 43  4  1  0
 43 15  1  0
 43 36  1  0
 34 44  1  0
 45 36  2  0
 46 37  1  0
 49  5  1  0
 49 31  1  0
 24 50  1  1
 50 32  1  0
 51 20  1  0
 51 35  1  0
 52 25  1  0
 42 52  1  0
 52 47  2  0
 52 48  2  0
M  END
$$$$
