
     RDKit          2D

 32 35  0  0  1  0  0  0  0  0999 V2000
    1.6500   -1.6941    0.0000 Cl  0  0  0  0  0  0  0  0  0  0  0  0
    2.0054    1.0865    0.0000 O   0  0  0  0  0  0  0  0  0  0  0  0
    5.0020   -1.2316    0.0000 O   0  0  0  0  0  0  0  0  0  0  0  0
    8.7189   -0.5404    0.0000 O   0  0  0  0  0  0  0  0  0  0  0  0
    4.4799    0.0986    0.0000 N   0  0  0  0  0  0  0  0  0  0  0  0
    8.1969    0.7899    0.0000 N   0  0  0  0  0  0  0  0  0  0  0  0
    3.3241    1.5479    0.0000 C   0  0  0  0  0  0  0  0  0  0  0  0
    4.1491    1.5479    0.0000 C   0  0  0  0  0  0  0  0  0  0  0  0
    2.8097    0.9029    0.0000 C   0  0  0  0  0  0  0  0  0  0  0  0
    4.6635    0.9029    0.0000 C   0  0  0  0  0  0  0  0  0  0  0  0
    2.9933    0.0986    0.0000 C   0  0  0  0  0  0  0  0  0  0  0  0
    3.7366   -0.2594    0.0000 C   0  0  0  0  0  0  0  0  0  0  0  0
    5.1249   -0.4158    0.0000 C   0  0  0  0  0  0  0  0  0  0  0  0
    2.2759   -0.3746    0.0000 C   0  0  0  0  0  0  0  0  0  0  0  0
    3.8140   -1.1153    0.0000 C   0  0  0  0  0  0  0  0  0  0  0  0
    5.8929   -0.1144    0.0000 C   0  0  0  0  0  0  0  0  0  0  0  0
    2.3335   -1.2319    0.0000 C   0  0  0  0  0  0  0  0  0  0  0  0
    3.1077   -1.6048    0.0000 C   0  0  0  0  0  0  0  0  0  0  0  0
    6.5379   -0.6288    0.0000 C   0  0  0  0  0  0  0  0  0  0  0  0
    6.0158    0.7014    0.0000 C   0  0  0  0  0  0  0  0  0  0  0  0
    7.3059   -0.3274    0.0000 C   0  0  0  0  0  0  0  0  0  0  0  0
    7.4288    0.4884    0.0000 C   0  0  0  0  0  0  0  0  0  0  0  0
    6.7839    1.0028    0.0000 C   0  0  0  0  0  0  0  0  0  0  0  0
    6.4150   -1.4446    0.0000 C   0  0  0  0  0  0  0  0  0  0  0  0
    8.8419    0.2755    0.0000 C   0  0  0  0  0  0  0  0  0  0  0  0
    9.6099    0.5769    0.0000 C   0  0  0  0  0  0  0  0  0  0  0  0
   10.2549    0.0625    0.0000 C   0  0  0  0  0  0  0  0  0  0  0  0
    9.7329    1.3926    0.0000 C   0  0  0  0  0  0  0  0  0  0  0  0
   11.0229    0.3639    0.0000 C   0  0  0  0  0  0  0  0  0  0  0  0
   10.1319   -0.7533    0.0000 C   0  0  0  0  0  0  0  0  0  0  0  0
   10.5008    1.6941    0.0000 C   0  0  0  0  0  0  0  0  0  0  0  0
   11.1459    1.1797    0.0000 C   0  0  0  0  0  0  0  0  0  0  0  0
  1 17  1  0
  9  2  1  6
  3 13  2  0
  4 25  2  0
  5 10  1  0
  5 12  1  0
  5 13  1  0
  6 22  1  0
  6 25  1  0
  7  8  1  0
  7  9  1  0
  8 10  1  0
  9 11  1  0
 11 12  2  0
 11 14  1  0
 12 15  1  0
 13 16  1  0
 14 17  2  0
 15 18  2  0
 16 19  2  0
 16 20  1  0
 17 18  1  0
 19 21  1  0
 19 24  1  0
 20 23  2  0
 21 22  2  0
 22 23  1  0
 25 26  1  0
 26 27  2  0
 26 28  1  0
 27 29  1  0
 27 30  1  0
 28 31  2  0
 29 32  2  0
 31 32  1  0
M  END
$$$$
