
     RDKit          2D

 30 33  0  0  0  0  0  0  0  0999 V2000
    3.7293   -1.1447    0.0000 Cl  0  0  0  0  0  0  0  0  0  0  0  0
    8.9643   -0.8545    0.0000 Cl  0  0  0  0  0  0  0  0  0  0  0  0
    5.1583   -3.6198    0.0000 Cl  0  0  0  0  0  0  0  0  0  0  0  0
    4.5965    2.3710    0.0000 O   0  0  0  0  0  0  0  0  0  0  0  0
    2.9555    2.1986    0.0000 N   0  0  0  0  0  0  0  0  0  0  0  0
    3.4404    1.5312    0.0000 N   0  0  0  0  0  0  0  0  0  0  0  0
    5.1583   -0.3197    0.0000 N   0  0  0  0  0  0  0  0  0  0  0  0
    4.4909    0.1653    0.0000 N   0  0  0  0  0  0  0  0  0  0  0  0
    1.9856    3.5335    0.0000 C   0  0  0  0  0  0  0  0  0  0  0  0
    1.6500    2.7798    0.0000 C   0  0  0  0  0  0  0  0  0  0  0  0
    2.8061    3.6198    0.0000 C   0  0  0  0  0  0  0  0  0  0  0  0
    2.1350    2.1124    0.0000 C   0  0  0  0  0  0  0  0  0  0  0  0
    3.2910    2.9522    0.0000 C   0  0  0  0  0  0  0  0  0  0  0  0
    4.2609    1.6174    0.0000 C   0  0  0  0  0  0  0  0  0  0  0  0
    4.7458    0.9499    0.0000 C   0  0  0  0  0  0  0  0  0  0  0  0
    5.5709    0.9499    0.0000 C   0  0  0  0  0  0  0  0  0  0  0  0
    5.8258    0.1653    0.0000 C   0  0  0  0  0  0  0  0  0  0  0  0
    6.6105   -0.0897    0.0000 C   0  0  0  0  0  0  0  0  0  0  0  0
    6.0558    1.6174    0.0000 C   0  0  0  0  0  0  0  0  0  0  0  0
    5.1583   -1.1447    0.0000 C   0  0  0  0  0  0  0  0  0  0  0  0
    7.2235    0.4623    0.0000 C   0  0  0  0  0  0  0  0  0  0  0  0
    6.7820   -0.8966    0.0000 C   0  0  0  0  0  0  0  0  0  0  0  0
    4.4439   -1.5572    0.0000 C   0  0  0  0  0  0  0  0  0  0  0  0
    5.8728   -1.5572    0.0000 C   0  0  0  0  0  0  0  0  0  0  0  0
    8.0082    0.2074    0.0000 C   0  0  0  0  0  0  0  0  0  0  0  0
    7.5666   -1.1516    0.0000 C   0  0  0  0  0  0  0  0  0  0  0  0
    4.4439   -2.3822    0.0000 C   0  0  0  0  0  0  0  0  0  0  0  0
    5.8728   -2.3822    0.0000 C   0  0  0  0  0  0  0  0  0  0  0  0
    8.1797   -0.5995    0.0000 C   0  0  0  0  0  0  0  0  0  0  0  0
    5.1583   -2.7947    0.0000 C   0  0  0  0  0  0  0  0  0  0  0  0
  1 23  1  0
  2 29  1  0
  3 30  1  0
  4 14  2  0
  5  6  1  0
  5 12  1  0
  5 13  1  0
  6 14  1  0
  7  8  1  0
  7 17  1  0
  7 20  1  0
  8 15  2  0
  9 10  1  0
  9 11  1  0
 10 12  1  0
 11 13  1  0
 14 15  1  0
 15 16  1  0
 16 17  2  0
 16 19  1  0
 17 18  1  0
 18 21  2  0
 18 22  1  0
 20 23  2  0
 20 24  1  0
 21 25  1  0
 22 26  2  0
 23 27  1  0
 24 28  2  0
 25 29  2  0
 26 29  1  0
 27 30  2  0
 28 30  1  0
M  END
$$$$
