
     RDKit          2D

 23 23  0  0  0  0  0  0  0  0999 V2000
   -1.3974    0.2019    0.0000 C   0  0  0  0  0  0  0  0  0  0  0  0
   -0.7300    0.6869    0.0000 C   0  0  0  0  0  0  0  0  0  0  0  0
   -0.0625    0.2020    0.0000 C   0  0  0  0  0  0  0  0  0  0  0  0
   -0.3175   -0.5826    0.0000 C   0  0  0  0  0  0  0  0  0  0  0  0
   -1.1425   -0.5826    0.0000 C   0  0  0  0  0  0  0  0  0  0  0  0
   -2.1821    0.4568    0.0000 C   0  0  0  0  0  0  0  0  0  0  0  0
   -2.3536    1.2639    0.0000 O   0  0  0  0  0  0  0  0  0  0  0  0
   -2.7952   -0.0951    0.0000 O   0  0  0  0  0  0  0  0  0  0  0  0
   -0.7300    1.5120    0.0000 O   0  0  0  0  0  0  0  0  0  0  0  0
    0.1674   -1.2500    0.0000 N   0  0  0  0  0  0  0  0  0  0  0  0
   -0.2071   -1.9851    0.0000 C   0  0  0  0  0  0  0  0  0  0  0  0
    0.2422   -2.6770    0.0000 N   0  0  0  0  0  0  0  0  0  0  0  0
   -1.0309   -2.0283    0.0000 N   0  0  0  0  0  0  0  0  0  0  0  0
    1.3662    0.2020    0.0000 C   0  0  0  0  0  0  0  0  0  0  0  0
    1.3661   -0.6227    0.0000 C   0  0  0  0  0  0  0  0  0  0  0  0
    2.0807   -1.0354    0.0000 C   0  0  0  0  0  0  0  0  0  0  0  0
    2.0808    0.6145    0.0000 C   0  0  0  0  0  0  0  0  0  0  0  0
    2.7952    0.2021    0.0000 C   0  0  0  0  0  0  0  0  0  0  0  0
    0.6518    1.4397    0.0000 N   0  0  0  0  0  0  0  0  0  0  0  0
    1.3663    1.8520    0.0000 C   0  0  0  0  0  0  0  0  0  0  0  0
    1.3665    2.6770    0.0000 O   0  0  0  0  0  0  0  0  0  0  0  0
    2.0807    1.4395    0.0000 C   0  0  0  0  0  0  0  0  0  0  0  0
    0.6518    0.6145    0.0000 C   0  0  0  0  0  0  0  0  0  0  0  0
  1  2  1  0
  2  3  1  0
  3  4  1  0
  4  5  1  0
  1  5  1  0
  6  7  2  0
  6  8  1  0
  1  6  1  6
  2  9  1  1
 11 12  2  3
 11 13  1  0
 10 11  1  0
  4 10  1  6
 14 15  1  0
 15 16  1  0
 17 18  1  0
 14 17  1  0
 20 21  2  0
 20 22  1  0
 19 20  1  0
  3 23  1  1
 23 14  1  0
 23 19  1  1
M  END
$$$$
