
     RDKit          2D

  4  3  0  0  0  0  0  0  0  0999 V2000
   -0.0409    0.9905    0.0000 O   0  0  0  0  0  0  0  0  0  0  0  0
    1.3621    0.9905    0.0000 O   0  0  0  0  0  0  0  0  0  0  0  0
    0.6189    0.5777    0.0000 C   0  0  0  0  0  0  0  0  0  0  0  0
    0.6189   -0.2473    0.0000 O   0  0  0  0  0  0  0  0  0  0  0  0
  1  3  1  0
  2  3  1  0
  3  4  2  0
M  CHG  2   1  -1   2  -1
M  END
$$$$
