
     RDKit          2D

 31 35  0  0  0  0  0  0  0  0999 V2000
    1.6500   -0.3414    0.0000 Cl  0  0  0  0  0  0  0  0  0  0  0  0
    5.5992   -4.9670    0.0000 F   0  0  0  0  0  0  0  0  0  0  0  0
    8.1145    3.3560    0.0000 O   0  0  0  0  0  0  0  0  0  0  0  0
    5.3430    1.8501    0.0000 N   0  0  0  0  0  0  0  0  0  0  0  0
    4.5741   -1.8304    0.0000 N   0  0  0  0  0  0  0  0  0  0  0  0
    6.6628    3.5885    0.0000 N   0  0  0  0  0  0  0  0  0  0  0  0
    7.4493    4.6672    0.0000 N   0  0  0  0  0  0  0  0  0  0  0  0
    4.8304    0.2817    0.0000 C   0  0  0  0  0  0  0  0  0  0  0  0
    4.2794    0.8957    0.0000 C   0  0  0  0  0  0  0  0  0  0  0  0
    5.6377    0.4518    0.0000 C   0  0  0  0  0  0  0  0  0  0  0  0
    4.5357    1.6799    0.0000 C   0  0  0  0  0  0  0  0  0  0  0  0
    5.8939    1.2360    0.0000 C   0  0  0  0  0  0  0  0  0  0  0  0
    4.5741   -0.5025    0.0000 C   0  0  0  0  0  0  0  0  0  0  0  0
    5.5992    2.6343    0.0000 C   0  0  0  0  0  0  0  0  0  0  0  0
    3.7935   -0.7539    0.0000 C   0  0  0  0  0  0  0  0  0  0  0  0
    6.4066    2.8044    0.0000 C   0  0  0  0  0  0  0  0  0  0  0  0
    5.0556   -1.1664    0.0000 C   0  0  0  0  0  0  0  0  0  0  0  0
    3.7935   -1.5789    0.0000 C   0  0  0  0  0  0  0  0  0  0  0  0
    6.1791    4.2569    0.0000 C   0  0  0  0  0  0  0  0  0  0  0  0
    3.0790   -0.3414    0.0000 C   0  0  0  0  0  0  0  0  0  0  0  0
    6.6652    4.9235    0.0000 C   0  0  0  0  0  0  0  0  0  0  0  0
    3.0790   -1.9914    0.0000 C   0  0  0  0  0  0  0  0  0  0  0  0
    4.8304   -2.6145    0.0000 C   0  0  0  0  0  0  0  0  0  0  0  0
    7.4479    3.8421    0.0000 C   0  0  0  0  0  0  0  0  0  0  0  0
    2.3645   -0.7539    0.0000 C   0  0  0  0  0  0  0  0  0  0  0  0
    2.3645   -1.5789    0.0000 C   0  0  0  0  0  0  0  0  0  0  0  0
    5.6377   -2.7846    0.0000 C   0  0  0  0  0  0  0  0  0  0  0  0
    4.2794   -3.2286    0.0000 C   0  0  0  0  0  0  0  0  0  0  0  0
    5.8939   -3.5688    0.0000 C   0  0  0  0  0  0  0  0  0  0  0  0
    4.5357   -4.0128    0.0000 C   0  0  0  0  0  0  0  0  0  0  0  0
    5.3430   -4.1829    0.0000 C   0  0  0  0  0  0  0  0  0  0  0  0
  1 25  1  0
  2 31  1  0
  3 24  2  0
  4 11  1  0
  4 12  1  0
  4 14  1  0
  5 17  1  0
  5 18  1  0
  5 23  1  0
  6 16  1  0
  6 19  1  0
  6 24  1  0
  7 21  1  0
  7 24  1  0
  8  9  1  0
  8 10  1  0
  8 13  1  0
  9 11  1  0
 10 12  1  0
 13 15  1  0
 13 17  2  0
 14 16  1  0
 15 18  2  0
 15 20  1  0
 18 22  1  0
 19 21  1  0
 20 25  2  0
 22 26  2  0
 23 27  2  0
 23 28  1  0
 25 26  1  0
 27 29  1  0
 28 30  2  0
 29 31  2  0
 30 31  1  0
M  END
$$$$
