
     RDKit          2D

 27 29  0  0  1  0  0  0  0  0999 V2000
    6.3168   -1.5786    0.0000 S   0  0  0  0  0  0  0  0  0  0  0  0
    7.5019    2.5675    0.0000 S   0  0  0  0  0  0  0  0  0  0  0  0
    2.8083   -2.5791    0.0000 O   0  0  0  0  0  0  0  0  0  0  0  0
    2.0110   -0.7900    0.0000 O   0  0  0  0  0  0  0  0  0  0  0  0
    6.0688   -3.2022    0.0000 O   0  0  0  0  0  0  0  0  0  0  0  0
    4.7098   -3.6437    0.0000 O   0  0  0  0  0  0  0  0  0  0  0  0
    8.3223    2.6537    0.0000 O   0  0  0  0  0  0  0  0  0  0  0  0
    6.6814    2.4813    0.0000 O   0  0  0  0  0  0  0  0  0  0  0  0
    4.2223   -1.9911    0.0000 N   0  0  0  0  0  0  0  0  0  0  0  0
    7.7214    0.0291    0.0000 N   0  0  0  0  0  0  0  0  0  0  0  0
    7.5881    1.7470    0.0000 N   0  0  0  0  0  0  0  0  0  0  0  0
    7.4156    3.3880    0.0000 N   0  0  0  0  0  0  0  0  0  0  0  0
    4.2223   -1.1661    0.0000 C   0  0  0  0  0  0  0  0  0  0  0  0
    3.3904   -1.1627    0.0000 C   0  0  0  0  0  0  0  0  0  0  0  0
    5.0069   -0.9111    0.0000 C   0  0  0  0  0  0  0  0  0  0  0  0
    3.3904   -1.9945    0.0000 C   0  0  0  0  0  0  0  0  0  0  0  0
    5.4918   -1.5786    0.0000 C   0  0  0  0  0  0  0  0  0  0  0  0
    5.0069   -2.2460    0.0000 C   0  0  0  0  0  0  0  0  0  0  0  0
    2.8083   -0.5781    0.0000 C   0  0  0  0  0  0  0  0  0  0  0  0
    5.2619   -0.1265    0.0000 C   0  0  0  0  0  0  0  0  0  0  0  0
    6.7293   -0.8641    0.0000 C   0  0  0  0  0  0  0  0  0  0  0  0
    6.3938   -0.1104    0.0000 C   0  0  0  0  0  0  0  0  0  0  0  0
    7.0069    0.4416    0.0000 C   0  0  0  0  0  0  0  0  0  0  0  0
    7.5499   -0.7779    0.0000 C   0  0  0  0  0  0  0  0  0  0  0  0
    3.0235    0.2184    0.0000 C   0  0  0  0  0  0  0  0  0  0  0  0
    5.2619   -3.0307    0.0000 C   0  0  0  0  0  0  0  0  0  0  0  0
    6.9206    1.2621    0.0000 C   0  0  0  0  0  0  0  0  0  0  0  0
  1 17  1  0
 21  1  1  1
  2  7  2  0
  2  8  2  0
  2 11  1  0
  2 12  1  0
  3 16  2  0
 19  4  1  0
  5 26  1  0
  6 26  2  0
 13  9  1  1
  9 16  1  0
  9 18  1  0
 10 23  1  0
 10 24  1  0
 11 27  1  0
 13 14  1  0
 13 15  1  0
 14 16  1  6
 14 19  1  0
 15 17  1  0
 15 20  1  1
 17 18  2  0
 18 26  1  0
 19 25  1  6
 21 22  1  0
 21 24  1  0
 22 23  1  0
 23 27  1  1
M  END
$$$$
