
     RDKit          2D

 25 27  0  0  1  0  0  0  0  0999 V2000
    7.0056   -7.1812    0.0000 C   0  0  0  0  0  0  0  0  0  0  0  0
    7.0056   -8.0062    0.0000 C   0  0  0  0  0  0  0  0  0  0  0  0
    7.7201   -8.4187    0.0000 C   0  0  0  0  0  0  0  0  0  0  0  0
    8.4346   -8.0062    0.0000 C   0  0  0  0  0  0  0  0  0  0  0  0
    8.4346   -7.1812    0.0000 C   0  0  0  0  0  0  0  0  0  0  0  0
    7.7201   -6.7687    0.0000 C   0  0  0  0  0  0  0  0  0  0  0  0
    9.8635   -8.0062    0.0000 C   0  0  0  0  0  0  0  0  0  0  0  0
    9.8635   -7.1812    0.0000 N   0  0  0  0  0  0  0  0  0  0  0  0
    9.1490   -6.7687    0.0000 C   0  0  0  0  0  0  0  0  0  0  0  0
   10.5780   -8.4187    0.0000 N   0  0  0  0  0  0  0  0  0  0  0  0
   11.2925   -8.0062    0.0000 C   0  0  0  0  0  0  0  0  0  0  0  0
   11.2925   -7.1812    0.0000 C   0  0  0  0  0  0  0  0  0  0  0  0
   10.5780   -6.7687    0.0000 C   0  0  0  0  0  0  0  0  0  0  0  0
    7.7201   -5.9438    0.0000 C   0  0  0  0  0  0  0  0  0  0  0  0
    7.7201   -5.1188    0.0000 N   0  0  0  0  0  0  0  0  0  0  0  0
    9.1404   -8.4238    0.0000 O   0  0  0  0  0  0  0  0  0  0  0  0
   10.5780   -9.2435    0.0000 C   0  0  0  0  0  0  0  0  0  0  0  0
   12.0093   -8.4200    0.0000 O   0  0  0  0  0  0  0  0  0  0  0  0
   10.5780   -5.9438    0.0000 N   0  0  0  0  0  0  0  0  0  0  0  0
   11.3047   -5.5241    0.0000 C   0  0  0  0  0  0  0  0  0  0  0  0
   11.3046   -4.6991    0.0000 C   0  0  0  0  0  0  0  0  0  0  0  0
   10.5901   -4.2867    0.0000 C   0  0  0  0  0  0  0  0  0  0  0  0
    9.8633   -4.7065    0.0000 C   0  0  0  0  0  0  0  0  0  0  0  0
    9.8634   -5.5315    0.0000 C   0  0  0  0  0  0  0  0  0  0  0  0
    9.1402   -4.2890    0.0000 N   0  0  0  0  0  0  0  0  0  0  0  0
  1  2  2  0
  2  3  1  0
  3  4  2  0
  4  5  1  0
  5  6  2  0
  1  6  1  0
  7  8  1  0
  8  9  1  0
  5  9  1  0
  7 10  1  0
 10 11  1  0
 11 12  1  0
 12 13  2  0
  8 13  1  0
  6 14  1  0
 14 15  3  0
  7 16  2  0
 10 17  1  0
 11 18  2  0
 13 19  1  0
 19 20  1  0
 20 21  1  0
 21 22  1  0
 22 23  1  0
 23 24  1  0
 19 24  1  0
 23 25  1  6
M  END
$$$$
