
     RDKit          2D

 17 18  0  0  0  0  0  0  0  0999 V2000
    4.5079   -0.4567    0.0000 F   0  0  0  0  0  0  0  0  0  0  0  0
    1.6500   -0.4567    0.0000 F   0  0  0  0  0  0  0  0  0  0  0  0
    6.2552    0.2184    0.0000 O   0  0  0  0  0  0  0  0  0  0  0  0
    3.7935    0.7808    0.0000 N   0  0  0  0  0  0  0  0  0  0  0  0
    3.8797    1.6013    0.0000 N   0  0  0  0  0  0  0  0  0  0  0  0
    4.6867    1.7728    0.0000 N   0  0  0  0  0  0  0  0  0  0  0  0
    6.4046    1.6395    0.0000 N   0  0  0  0  0  0  0  0  0  0  0  0
    3.0790    0.3683    0.0000 C   0  0  0  0  0  0  0  0  0  0  0  0
    3.0790   -0.4567    0.0000 C   0  0  0  0  0  0  0  0  0  0  0  0
    4.5471    0.4452    0.0000 C   0  0  0  0  0  0  0  0  0  0  0  0
    3.7935   -0.8692    0.0000 C   0  0  0  0  0  0  0  0  0  0  0  0
    2.3645   -0.8692    0.0000 C   0  0  0  0  0  0  0  0  0  0  0  0
    5.0992    1.0583    0.0000 C   0  0  0  0  0  0  0  0  0  0  0  0
    3.7935   -1.6942    0.0000 C   0  0  0  0  0  0  0  0  0  0  0  0
    2.3645   -1.6942    0.0000 C   0  0  0  0  0  0  0  0  0  0  0  0
    3.0790   -2.1068    0.0000 C   0  0  0  0  0  0  0  0  0  0  0  0
    5.9197    0.9720    0.0000 C   0  0  0  0  0  0  0  0  0  0  0  0
  1 11  1  0
  2 12  1  0
  3 17  2  0
  4  5  1  0
  4  8  1  0
  4 10  1  0
  5  6  2  0
  6 13  1  0
  7 17  1  0
  8  9  1  0
  9 11  2  0
  9 12  1  0
 10 13  2  0
 11 14  1  0
 12 15  2  0
 13 17  1  0
 14 16  2  0
 15 16  1  0
M  END
$$$$
