219090
     RDKit          2D

 41 44  0  0  1  0  0  0  0  0999 V2000
    8.5947   -3.9756    0.0000 P   0  0  0  0  0  0  0  0  0  0  0  0
    3.0790   -2.2299    0.0000 F   0  0  0  0  0  0  0  0  0  0  0  0
    1.6500    1.0702    0.0000 F   0  0  0  0  0  0  0  0  0  0  0  0
    2.7770    0.7682    0.0000 F   0  0  0  0  0  0  0  0  0  0  0  0
    1.9520    2.1972    0.0000 F   0  0  0  0  0  0  0  0  0  0  0  0
    3.7935    4.7828    0.0000 F   0  0  0  0  0  0  0  0  0  0  0  0
    4.6185    3.9578    0.0000 F   0  0  0  0  0  0  0  0  0  0  0  0
    2.9685    3.9578    0.0000 F   0  0  0  0  0  0  0  0  0  0  0  0
    6.6515    0.6577    0.0000 O   0  0  0  0  0  0  0  0  0  0  0  0
    5.2224    0.6577    0.0000 O   0  0  0  0  0  0  0  0  0  0  0  0
    9.4922   -2.4212    0.0000 O   0  0  0  0  0  0  0  0  0  0  0  0
    8.9303   -4.7293    0.0000 O   0  0  0  0  0  0  0  0  0  0  0  0
    9.3484   -3.6401    0.0000 O   0  0  0  0  0  0  0  0  0  0  0  0
    7.8411   -4.3112    0.0000 O   0  0  0  0  0  0  0  0  0  0  0  0
    6.6515   -0.9923    0.0000 N   0  0  0  0  0  0  0  0  0  0  0  0
    7.4521   -3.0504    0.0000 N   0  0  0  0  0  0  0  0  0  0  0  0
    8.1197   -1.8943    0.0000 N   0  0  0  0  0  0  0  0  0  0  0  0
    8.2592   -3.2219    0.0000 N   0  0  0  0  0  0  0  0  0  0  0  0
    5.9370   -0.5798    0.0000 C   0  0  0  0  0  0  0  0  0  0  0  0
    5.9370    0.2452    0.0000 C   0  0  0  0  0  0  0  0  0  0  0  0
    7.3659   -0.5798    0.0000 C   0  0  0  0  0  0  0  0  0  0  0  0
    7.3659    0.2452    0.0000 C   0  0  0  0  0  0  0  0  0  0  0  0
    6.6515   -1.8173    0.0000 C   0  0  0  0  0  0  0  0  0  0  0  0
    5.2224   -0.9923    0.0000 C   0  0  0  0  0  0  0  0  0  0  0  0
    5.2224    1.4827    0.0000 C   0  0  0  0  0  0  0  0  0  0  0  0
    7.3659   -2.2299    0.0000 C   0  0  0  0  0  0  0  0  0  0  0  0
    4.5080   -0.5798    0.0000 C   0  0  0  0  0  0  0  0  0  0  0  0
    5.2224   -1.8173    0.0000 C   0  0  0  0  0  0  0  0  0  0  0  0
    4.5080    1.8952    0.0000 C   0  0  0  0  0  0  0  0  0  0  0  0
    5.9370    1.8952    0.0000 C   0  0  0  0  0  0  0  0  0  0  0  0
    3.7935   -0.9923    0.0000 C   0  0  0  0  0  0  0  0  0  0  0  0
    4.5080   -2.2299    0.0000 C   0  0  0  0  0  0  0  0  0  0  0  0
    4.5080    2.7202    0.0000 C   0  0  0  0  0  0  0  0  0  0  0  0
    3.7935    1.4827    0.0000 C   0  0  0  0  0  0  0  0  0  0  0  0
    3.7935   -1.8173    0.0000 C   0  0  0  0  0  0  0  0  0  0  0  0
    8.6717   -2.5074    0.0000 C   0  0  0  0  0  0  0  0  0  0  0  0
    3.7935    3.1328    0.0000 C   0  0  0  0  0  0  0  0  0  0  0  0
    3.0790    1.8952    0.0000 C   0  0  0  0  0  0  0  0  0  0  0  0
    3.0790    2.7202    0.0000 C   0  0  0  0  0  0  0  0  0  0  0  0
    2.3645    1.4827    0.0000 C   0  0  0  0  0  0  0  0  0  0  0  0
    3.7935    3.9578    0.0000 C   0  0  0  0  0  0  0  0  0  0  0  0
  1 12  1  0
  1 13  1  0
  1 14  2  0
  1 18  1  0
  2 35  1  0
  3 40  1  0
  4 40  1  0
  5 40  1  0
  6 41  1  0
  7 41  1  0
  8 41  1  0
  9 20  1  0
  9 22  1  0
 20 10  1  1
 25 10  1  0
 11 36  2  0
 15 19  1  0
 15 21  1  0
 15 23  1  0
 16 18  1  0
 16 26  1  0
 17 26  2  0
 17 36  1  0
 18 36  1  0
 19 20  1  0
 19 24  1  1
 21 22  1  0
 23 26  1  0
 24 27  2  0
 24 28  1  0
 25 29  1  0
 25 30  1  1
 27 31  1  0
 28 32  2  0
 29 33  2  0
 29 34  1  0
 31 35  2  0
 32 35  1  0
 33 37  1  0
 34 38  2  0
 37 39  2  0
 37 41  1  0
 38 39  1  0
 38 40  1  0
M  END
$$$$
