[NO NAME]
     RDKit          2D

 33 37  0  0  0  0  0  0  0  0999 V2000
   11.9391   -1.8446    0.0000 O   0  0  0  0  0  0  0  0  0  0  0  0
   13.6581   -0.4662    0.0000 O   0  0  0  0  0  0  0  0  0  0  0  0
    7.5860    0.4694    0.0000 N   0  0  0  0  0  0  0  0  0  0  0  0
    9.0150   -0.3557    0.0000 N   0  0  0  0  0  0  0  0  0  0  0  0
    3.1267    1.8702    0.0000 N   0  0  0  0  0  0  0  0  0  0  0  0
   13.6581   -1.8951    0.0000 N   0  0  0  0  0  0  0  0  0  0  0  0
    1.6884   -1.9751    0.0000 N   0  0  0  0  0  0  0  0  0  0  0  0
    7.5860   -0.3557    0.0000 C   0  0  0  0  0  0  0  0  0  0  0  0
    8.3005    0.8819    0.0000 C   0  0  0  0  0  0  0  0  0  0  0  0
    8.3005   -0.7682    0.0000 C   0  0  0  0  0  0  0  0  0  0  0  0
    9.0150    0.4694    0.0000 C   0  0  0  0  0  0  0  0  0  0  0  0
    6.8715    0.8819    0.0000 C   0  0  0  0  0  0  0  0  0  0  0  0
    6.1570    0.4694    0.0000 C   0  0  0  0  0  0  0  0  0  0  0  0
    5.4425    0.8819    0.0000 C   0  0  0  0  0  0  0  0  0  0  0  0
    9.7294   -0.7682    0.0000 C   0  0  0  0  0  0  0  0  0  0  0  0
    4.7280    0.4694    0.0000 C   0  0  0  0  0  0  0  0  0  0  0  0
    4.0135    0.8819    0.0000 C   0  0  0  0  0  0  0  0  0  0  0  0
   10.4439   -0.3557    0.0000 C   0  0  0  0  0  0  0  0  0  0  0  0
    9.7294   -1.5932    0.0000 C   0  0  0  0  0  0  0  0  0  0  0  0
    3.2646    0.5476    0.0000 C   0  0  0  0  0  0  0  0  0  0  0  0
   11.1585   -0.7682    0.0000 C   0  0  0  0  0  0  0  0  0  0  0  0
    3.9285    1.6976    0.0000 C   0  0  0  0  0  0  0  0  0  0  0  0
   11.1585   -1.5932    0.0000 C   0  0  0  0  0  0  0  0  0  0  0  0
   10.4439   -2.0057    0.0000 C   0  0  0  0  0  0  0  0  0  0  0  0
    2.7136    1.1617    0.0000 C   0  0  0  0  0  0  0  0  0  0  0  0
   11.9391   -0.5168    0.0000 C   0  0  0  0  0  0  0  0  0  0  0  0
    3.0083   -0.2366    0.0000 C   0  0  0  0  0  0  0  0  0  0  0  0
    1.9064    0.9915    0.0000 C   0  0  0  0  0  0  0  0  0  0  0  0
   12.4206   -1.1807    0.0000 C   0  0  0  0  0  0  0  0  0  0  0  0
    2.2010   -0.4067    0.0000 C   0  0  0  0  0  0  0  0  0  0  0  0
    1.6500    0.2073    0.0000 C   0  0  0  0  0  0  0  0  0  0  0  0
   13.2456   -1.1807    0.0000 C   0  0  0  0  0  0  0  0  0  0  0  0
    1.9447   -1.1909    0.0000 C   0  0  0  0  0  0  0  0  0  0  0  0
  1 23  1  0
  1 29  1  0
  2 32  2  0
  3  8  1  0
  3  9  1  0
  3 12  1  0
  4 10  1  0
  4 11  1  0
  4 15  1  0
  5 22  1  0
  5 25  1  0
  6 32  1  0
  7 33  3  0
  8 10  1  0
  9 11  1  0
 12 13  1  0
 13 14  1  0
 14 16  1  0
 15 18  2  0
 15 19  1  0
 16 17  1  0
 17 20  1  0
 17 22  2  0
 18 21  1  0
 19 24  2  0
 20 25  2  0
 20 27  1  0
 21 23  2  0
 21 26  1  0
 23 24  1  0
 25 28  1  0
 26 29  2  0
 27 30  2  0
 28 31  2  0
 29 32  1  0
 30 31  1  0
 30 33  1  0
M  END
$$$$
