
     RDKit          2D

 31 34  0  0  0  0  0  0  0  0999 V2000
    4.5471  -20.1368    0.0000 C   0  0  0  0  0  0  0  0  0  0  0  0
    3.8325  -20.5492    0.0000 C   0  0  0  0  0  0  0  0  0  0  0  0
    3.8325  -21.3743    0.0000 C   0  0  0  0  0  0  0  0  0  0  0  0
    4.5470  -21.7869    0.0000 C   0  0  0  0  0  0  0  0  0  0  0  0
    5.2615  -21.3744    0.0000 C   0  0  0  0  0  0  0  0  0  0  0  0
    5.2615  -20.5494    0.0000 C   0  0  0  0  0  0  0  0  0  0  0  0
    6.6903  -20.5494    0.0000 N   0  0  0  0  0  0  0  0  0  0  0  0
    6.6903  -21.3744    0.0000 C   0  0  0  0  0  0  0  0  0  0  0  0
    5.9759  -21.7869    0.0000 N   0  0  0  0  0  0  0  0  0  0  0  0
    7.4048  -20.1370    0.0000 C   0  0  0  0  0  0  0  0  0  0  0  0
    8.1193  -20.5495    0.0000 C   0  0  0  0  0  0  0  0  0  0  0  0
    8.1192  -21.3744    0.0000 C   0  0  0  0  0  0  0  0  0  0  0  0
    7.4048  -21.7869    0.0000 N   0  0  0  0  0  0  0  0  0  0  0  0
    8.8361  -21.7882    0.0000 N   0  0  0  0  0  0  0  0  0  0  0  0
    8.8363  -22.6030    0.0000 C   0  0  0  0  0  0  0  0  0  0  0  0
    9.5493  -21.3763    0.0000 C   0  0  0  0  0  0  0  0  0  0  0  0
    3.1182  -20.1367    0.0000 C   0  0  0  0  0  0  0  0  0  0  0  0
    3.1181  -21.7867    0.0000 S   0  0  0  0  0  0  0  0  0  0  0  0
    8.1166  -23.0188    0.0000 C   0  0  0  0  0  0  0  0  0  0  0  0
    8.1168  -23.8438    0.0000 C   0  0  0  0  0  0  0  0  0  0  0  0
    8.8313  -24.2561    0.0000 C   0  0  0  0  0  0  0  0  0  0  0  0
    9.5510  -23.8403    0.0000 C   0  0  0  0  0  0  0  0  0  0  0  0
    9.5508  -23.0153    0.0000 C   0  0  0  0  0  0  0  0  0  0  0  0
    9.0043  -25.0691    0.0000 C   0  0  0  0  0  0  0  0  0  0  0  0
    9.8310  -25.1557    0.0000 N   0  0  0  0  0  0  0  0  0  0  0  0
   10.1688  -24.3964    0.0000 N   0  0  0  0  0  0  0  0  0  0  0  0
   10.2425  -25.8681    0.0000 C   0  0  0  0  0  0  0  0  0  0  0  0
    8.4600  -25.6738    0.0000 C   0  0  0  0  0  0  0  0  0  0  0  0
    2.3976  -21.3650    0.0000 N   0  0  0  0  0  0  0  0  0  0  0  0
    2.7034  -22.4999    0.0000 O   0  0  0  0  0  0  0  0  0  0  0  0
    3.5284  -22.5024    0.0000 O   0  0  0  0  0  0  0  0  0  0  0  0
  1  2  2  0
  2  3  1  0
  3  4  2  0
  4  5  1  0
  5  6  2  0
  1  6  1  0
  7  8  2  0
  8  9  1  0
  5  9  1  0
  7 10  1  0
 10 11  2  0
 11 12  1  0
 12 13  2  0
  8 13  1  0
 12 14  1  0
 14 15  1  0
 14 16  1  0
  2 17  1  0
  3 18  1  0
 15 19  1  0
 19 20  2  0
 20 21  1  0
 21 22  1  0
 22 23  1  0
 15 23  2  0
 21 24  2  0
 24 25  1  0
 25 26  1  0
 22 26  2  0
 25 27  1  0
 24 28  1  0
 18 29  1  0
 30 18  2  0
 31 18  2  0
M  END
$$$$
