
     RDKit          2D

 19 20  0  0  0  0  0  0  0  0999 V2000
   -0.7145    7.0125    0.0000 C   0  0  0  0  0  0  0  0  0  0  0  0
    3.5724    2.8875    0.0000 C   0  0  0  0  0  0  0  0  0  0  0  0
    2.1434    2.8875    0.0000 C   0  0  0  0  0  0  0  0  0  0  0  0
    3.5724    3.7125    0.0000 C   0  0  0  0  0  0  0  0  0  0  0  0
    2.1434    3.7125    0.0000 C   0  0  0  0  0  0  0  0  0  0  0  0
    1.4289    7.4250    0.0000 C   0  0  0  0  0  0  0  0  0  0  0  0
    0.7145    6.1875    0.0000 C   0  0  0  0  0  0  0  0  0  0  0  0
    2.8579    2.4750    0.0000 C   0  0  0  0  0  0  0  0  0  0  0  0
    0.7145    7.0125    0.0000 C   0  0  0  0  0  0  0  0  0  0  0  0
    2.8579    4.1250    0.0000 C   0  0  0  0  0  0  0  0  0  0  0  0
    2.1434    6.1875    0.0000 C   0  0  0  0  0  0  0  0  0  0  0  0
    2.8579    1.6500    0.0000 N   0  0  0  0  0  0  0  0  0  0  0  0
    2.1434    7.0125    0.0000 N   0  0  0  0  0  0  0  0  0  0  0  0
    1.4289    5.7750    0.0000 N   0  0  0  0  0  0  0  0  0  0  0  0
    2.8579    5.7750    0.0000 N   0  0  0  0  0  0  0  0  0  0  0  0
    2.0329    4.9500    0.0000 O   0  0  0  0  0  0  0  0  0  0  0  0
    3.6829    4.9500    0.0000 O   0  0  0  0  0  0  0  0  0  0  0  0
   -0.0000    7.4250    0.0000 O   0  0  0  0  0  0  0  0  0  0  0  0
    2.8579    4.9500    0.0000 S   0  0  0  0  0  0  0  0  0  0  0  0
  4  2  2  0
  5  3  1  0
  8  2  1  0
  8  3  2  0
  9  6  2  0
  9  7  1  0
 10  4  1  0
 10  5  2  0
 12  8  1  0
 13  6  1  0
 13 11  2  0
 14  7  2  0
 14 11  1  0
 15 11  1  0
 18  1  1  0
 18  9  1  0
 19 10  1  0
 19 15  1  0
 19 16  2  0
 19 17  2  0
M  END
$$$$
