
     RDKit          2D

 29 32  0  0  0  0  0  0  0  0999 V2000
    2.9159   -0.6030    0.0000 N   0  0  0  0  0  0  0  0  0  0  0  0
    3.2515   -1.3567    0.0000 C   0  0  0  0  0  0  0  0  0  0  0  0
    2.1089   -0.4314    0.0000 C   0  0  0  0  0  0  0  0  0  0  0  0
    3.3284    0.1113    0.0000 C   0  0  0  0  0  0  0  0  0  0  0  0
    4.0720   -1.4429    0.0000 C   0  0  0  0  0  0  0  0  0  0  0  0
    2.7666   -2.0241    0.0000 C   0  0  0  0  0  0  0  0  0  0  0  0
    2.0227    0.3890    0.0000 C   0  0  0  0  0  0  0  0  0  0  0  0
    1.4958   -0.9835    0.0000 C   0  0  0  0  0  0  0  0  0  0  0  0
    2.7764    0.7244    0.0000 C   0  0  0  0  0  0  0  0  0  0  0  0
    4.1489    0.1976    0.0000 C   0  0  0  0  0  0  0  0  0  0  0  0
    4.4075   -2.1965    0.0000 C   0  0  0  0  0  0  0  0  0  0  0  0
    3.1021   -2.7778    0.0000 C   0  0  0  0  0  0  0  0  0  0  0  0
    1.3082    0.8014    0.0000 C   0  0  0  0  0  0  0  0  0  0  0  0
    3.9226   -2.8640    0.0000 C   0  0  0  0  0  0  0  0  0  0  0  0
    0.5938    0.3890    0.0000 C   0  0  0  0  0  0  0  0  0  0  0  0
   -0.1206    0.8014    0.0000 C   0  0  0  0  0  0  0  0  0  0  0  0
   -0.8351    0.3890    0.0000 N   0  0  0  0  0  0  0  0  0  0  0  0
   -0.1206    1.6265    0.0000 C   0  0  0  0  0  0  0  0  0  0  0  0
   -1.5495    0.8014    0.0000 C   0  0  0  0  0  0  0  0  0  0  0  0
   -0.8351   -0.4360    0.0000 C   0  0  0  0  0  0  0  0  0  0  0  0
   -0.8351    2.0390    0.0000 C   0  0  0  0  0  0  0  0  0  0  0  0
   -1.5495    1.6265    0.0000 C   0  0  0  0  0  0  0  0  0  0  0  0
   -2.2640    0.3890    0.0000 C   0  0  0  0  0  0  0  0  0  0  0  0
   -2.2640    2.0390    0.0000 C   0  0  0  0  0  0  0  0  0  0  0  0
   -2.9785    0.8014    0.0000 C   0  0  0  0  0  0  0  0  0  0  0  0
   -2.9785    1.6265    0.0000 C   0  0  0  0  0  0  0  0  0  0  0  0
   -3.6930    2.0390    0.0000 N   0  0  0  0  0  0  0  0  0  0  0  0
   -3.6930    2.8640    0.0000 C   0  0  0  0  0  0  0  0  0  0  0  0
   -4.4075    1.6265    0.0000 C   0  0  0  0  0  0  0  0  0  0  0  0
  1  2  1  0
  1  3  1  0
  1  4  1  0
  2  5  2  0
  2  6  1  0
  3  7  2  0
  3  8  1  0
  4  9  2  0
  4 10  1  0
  5 11  1  0
  6 12  2  0
  7 13  1  0
  7  9  1  0
 11 14  2  0
 12 14  1  0
 13 15  2  0
 15 16  1  0
 16 17  2  0
 16 18  1  0
 17 19  1  0
 17 20  1  0
 18 21  2  0
 19 22  2  0
 19 23  1  0
 21 22  1  0
 22 24  1  0
 23 25  2  0
 24 26  2  0
 25 26  1  0
 26 27  1  0
 27 28  1  0
 27 29  1  0
M  CHG  1  17   1
M  END
$$$$
