
     RDKit          2D

229232  0  0  0  0  0  0  0  0999 V2000
    0.8495    5.8882    0.0000 C   0  0  0  0  0  0  0  0  0  0  0  0
    1.6697    5.8882    0.0000 C   0  0  0  0  0  0  0  0  0  0  0  0
    0.4394    6.6205    0.0000 O   0  0  0  0  0  0  0  0  0  0  0  0
    0.4394    5.1851    0.0000 N   0  0  0  0  0  0  0  0  0  0  0  0
    2.1092    5.1851    0.0000 N   0  0  0  0  0  0  0  0  0  0  0  0
    2.1092    6.6205    0.0000 C   0  0  0  0  0  0  0  0  0  0  0  0
    1.6697    7.3236    0.0000 C   0  0  0  0  0  0  0  0  0  0  0  0
    2.1092    8.0559    0.0000 C   0  0  0  0  0  0  0  0  0  0  0  0
    1.6697    8.7591    0.0000 N   0  0  0  0  0  0  0  0  0  0  0  0
    2.9294    8.0559    0.0000 O   0  0  0  0  0  0  0  0  0  0  0  0
    2.9294    5.1851    0.0000 C   0  0  0  0  0  0  0  0  0  0  0  0
    3.3396    4.4527    0.0000 C   0  0  0  0  0  0  0  0  0  0  0  0
    3.3396    5.8882    0.0000 O   0  0  0  0  0  0  0  0  0  0  0  0
    4.1598    4.4527    0.0000 C   0  0  0  0  0  0  0  0  0  0  0  0
    2.9294    3.7497    0.0000 N   0  0  0  0  0  0  0  0  0  0  0  0
    4.5699    5.1851    0.0000 C   0  0  0  0  0  0  0  0  0  0  0  0
    4.1598    5.8882    0.0000 C   0  0  0  0  0  0  0  0  0  0  0  0
    3.3396    3.0173    0.0000 C   0  0  0  0  0  0  0  0  0  0  0  0
    2.9294    2.3142    0.0000 C   0  0  0  0  0  0  0  0  0  0  0  0
    4.1598    3.0173    0.0000 O   0  0  0  0  0  0  0  0  0  0  0  0
    3.3396    1.5818    0.0000 C   0  0  0  0  0  0  0  0  0  0  0  0
    2.1092    2.3142    0.0000 N   0  0  0  0  0  0  0  0  0  0  0  0
    1.6697    1.5818    0.0000 C   0  0  0  0  0  0  0  0  0  0  0  0
    2.1092    0.8788    0.0000 C   0  0  0  0  0  0  0  0  0  0  0  0
    0.8495    1.5818    0.0000 O   0  0  0  0  0  0  0  0  0  0  0  0
    1.6697    0.1465    0.0000 C   0  0  0  0  0  0  0  0  0  0  0  0
    2.9294    0.8788    0.0000 N   0  0  0  0  0  0  0  0  0  0  0  0
    0.8495    0.1465    0.0000 C   0  0  0  0  0  0  0  0  0  0  0  0
    0.4394   -0.5566    0.0000 C   0  0  0  0  0  0  0  0  0  0  0  0
    0.4394    0.8788    0.0000 C   0  0  0  0  0  0  0  0  0  0  0  0
    3.5153    0.2929    0.0000 C   0  0  0  0  0  0  0  0  0  0  0  0
    3.5153   -0.5272    0.0000 C   0  0  0  0  0  0  0  0  0  0  0  0
    4.2769    0.6151    0.0000 O   0  0  0  0  0  0  0  0  0  0  0  0
    2.7830   -0.9374    0.0000 C   0  0  0  0  0  0  0  0  0  0  0  0
    4.2184   -0.9374    0.0000 N   0  0  0  0  0  0  0  0  0  0  0  0
    2.5779   -1.7576    0.0000 C   0  0  0  0  0  0  0  0  0  0  0  0
    1.7869   -1.9627    0.0000 C   0  0  0  0  0  0  0  0  0  0  0  0
    1.0546   -1.5526    0.0000 N   0  0  0  0  0  0  0  0  0  0  0  0
    0.2636   -1.7576    0.0000 C   0  0  0  0  0  0  0  0  0  0  0  0
   -0.3222   -1.1717    0.0000 N   0  0  0  0  0  0  0  0  0  0  0  0
    0.0586   -2.5779    0.0000 N   0  0  0  0  0  0  0  0  0  0  0  0
    4.0133   -1.7576    0.0000 C   0  0  0  0  0  0  0  0  0  0  0  0
    4.5992   -2.3435    0.0000 C   0  0  0  0  0  0  0  0  0  0  0  0
    3.2223   -1.9627    0.0000 O   0  0  0  0  0  0  0  0  0  0  0  0
    4.3941   -3.1344    0.0000 C   0  0  0  0  0  0  0  0  0  0  0  0
    5.3902   -2.1092    0.0000 N   0  0  0  0  0  0  0  0  0  0  0  0
    3.5739   -3.3396    0.0000 C   0  0  0  0  0  0  0  0  0  0  0  0
    4.9800   -3.7203    0.0000 O   0  0  0  0  0  0  0  0  0  0  0  0
    5.6245   -1.3182    0.0000 C   0  0  0  0  0  0  0  0  0  0  0  0
    6.4154   -1.1132    0.0000 C   0  0  0  0  0  0  0  0  0  0  0  0
    5.0386   -0.7324    0.0000 O   0  0  0  0  0  0  0  0  0  0  0  0
    6.6205   -0.3222    0.0000 N   0  0  0  0  0  0  0  0  0  0  0  0
    7.0013   -1.6991    0.0000 C   0  0  0  0  0  0  0  0  0  0  0  0
    7.8216   -1.6991    0.0000 C   0  0  0  0  0  0  0  0  0  0  0  0
    8.2317   -2.4021    0.0000 C   0  0  0  0  0  0  0  0  0  0  0  0
    9.0813   -2.4021    0.0000 C   0  0  0  0  0  0  0  0  0  0  0  0
    9.4914   -1.6991    0.0000 C   0  0  0  0  0  0  0  0  0  0  0  0
    9.0813   -0.9667    0.0000 C   0  0  0  0  0  0  0  0  0  0  0  0
    8.2317   -0.9667    0.0000 C   0  0  0  0  0  0  0  0  0  0  0  0
   10.3117   -1.6991    0.0000 O   0  0  0  0  0  0  0  0  0  0  0  0
    6.0346    0.2636    0.0000 C   0  0  0  0  0  0  0  0  0  0  0  0
    6.2397    1.0838    0.0000 C   0  0  0  0  0  0  0  0  0  0  0  0
    5.2437    0.0586    0.0000 O   0  0  0  0  0  0  0  0  0  0  0  0
    5.6831    1.6697    0.0000 C   0  0  0  0  0  0  0  0  0  0  0  0
    7.0599    1.2889    0.0000 N   0  0  0  0  0  0  0  0  0  0  0  0
    5.8882    2.4607    0.0000 C   0  0  0  0  0  0  0  0  0  0  0  0
    5.3023    3.0466    0.0000 O   0  0  0  0  0  0  0  0  0  0  0  0
    6.6791    2.6658    0.0000 N   0  0  0  0  0  0  0  0  0  0  0  0
    7.6458    0.7030    0.0000 C   0  0  0  0  0  0  0  0  0  0  0  0
    8.4368    0.9080    0.0000 C   0  0  0  0  0  0  0  0  0  0  0  0
    7.4115   -0.0878    0.0000 O   0  0  0  0  0  0  0  0  0  0  0  0
    9.0227    0.3222    0.0000 C   0  0  0  0  0  0  0  0  0  0  0  0
    8.6418    1.7283    0.0000 N   0  0  0  0  0  0  0  0  0  0  0  0
    9.8136    0.5566    0.0000 C   0  0  0  0  0  0  0  0  0  0  0  0
   10.3996   -0.0292    0.0000 O   0  0  0  0  0  0  0  0  0  0  0  0
   10.0480    1.3475    0.0000 O   0  0  0  0  0  0  0  0  0  0  0  0
    8.0559    2.3142    0.0000 C   0  0  0  0  0  0  0  0  0  0  0  0
    8.2903    3.1052    0.0000 C   0  0  0  0  0  0  0  0  0  0  0  0
    7.2650    2.0799    0.0000 O   0  0  0  0  0  0  0  0  0  0  0  0
    7.7045    3.6911    0.0000 N   0  0  0  0  0  0  0  0  0  0  0  0
    9.0813    3.3102    0.0000 C   0  0  0  0  0  0  0  0  0  0  0  0
    9.2863    4.1305    0.0000 C   0  0  0  0  0  0  0  0  0  0  0  0
    9.6672    2.7243    0.0000 O   0  0  0  0  0  0  0  0  0  0  0  0
    7.9095    4.4820    0.0000 C   0  0  0  0  0  0  0  0  0  0  0  0
    7.3236    5.0679    0.0000 C   0  0  0  0  0  0  0  0  0  0  0  0
    8.7004    4.7164    0.0000 O   0  0  0  0  0  0  0  0  0  0  0  0
    7.5287    5.8882    0.0000 N   0  0  0  0  0  0  0  0  0  0  0  0
    6.5327    4.8628    0.0000 C   0  0  0  0  0  0  0  0  0  0  0  0
    5.9467    5.4487    0.0000 C   0  0  0  0  0  0  0  0  0  0  0  0
    6.1519    6.2397    0.0000 C   0  0  0  0  0  0  0  0  0  0  0  0
    5.5660    6.8256    0.0000 C   0  0  0  0  0  0  0  0  0  0  0  0
    4.7749    6.6205    0.0000 C   0  0  0  0  0  0  0  0  0  0  0  0
    4.5406    5.8295    0.0000 C   0  0  0  0  0  0  0  0  0  0  0  0
    5.1265    5.2437    0.0000 C   0  0  0  0  0  0  0  0  0  0  0  0
    4.3941    6.7084    0.0000 C   0  0  0  0  0  0  0  0  0  0  0  0
    3.9547    7.4115    0.0000 N   0  0  0  0  0  0  0  0  0  0  0  0
    8.3489    6.0932    0.0000 C   0  0  0  0  0  0  0  0  0  0  0  0
    8.5539    6.8842    0.0000 C   0  0  0  0  0  0  0  0  0  0  0  0
    8.9348    5.5073    0.0000 O   0  0  0  0  0  0  0  0  0  0  0  0
    9.3450    7.1186    0.0000 N   0  0  0  0  0  0  0  0  0  0  0  0
    7.9680    7.4700    0.0000 C   0  0  0  0  0  0  0  0  0  0  0  0
    8.1732    8.2610    0.0000 C   0  0  0  0  0  0  0  0  0  0  0  0
    7.1771    7.2650    0.0000 C   0  0  0  0  0  0  0  0  0  0  0  0
    9.5793    7.9095    0.0000 C   0  0  0  0  0  0  0  0  0  0  0  0
   10.3702    8.1146    0.0000 C   0  0  0  0  0  0  0  0  0  0  0  0
    8.9934    8.4954    0.0000 O   0  0  0  0  0  0  0  0  0  0  0  0
   10.5753    8.9055    0.0000 C   0  0  0  0  0  0  0  0  0  0  0  0
   10.9561    7.5287    0.0000 N   0  0  0  0  0  0  0  0  0  0  0  0
   11.7470    7.7337    0.0000 C   0  0  0  0  0  0  0  0  0  0  0  0
   12.3330    7.1478    0.0000 C   0  0  0  0  0  0  0  0  0  0  0  0
   11.9814    8.5539    0.0000 O   0  0  0  0  0  0  0  0  0  0  0  0
   13.1532    7.3822    0.0000 C   0  0  0  0  0  0  0  0  0  0  0  0
   12.1279    6.3569    0.0000 N   0  0  0  0  0  0  0  0  0  0  0  0
   13.3583    8.1732    0.0000 C   0  0  0  0  0  0  0  0  0  0  0  0
   14.1492    8.3782    0.0000 O   0  0  0  0  0  0  0  0  0  0  0  0
   12.7724    8.7591    0.0000 O   0  0  0  0  0  0  0  0  0  0  0  0
   12.7138    5.7710    0.0000 C   0  0  0  0  0  0  0  0  0  0  0  0
   12.5087    4.9800    0.0000 C   0  0  0  0  0  0  0  0  0  0  0  0
   13.5048    6.0053    0.0000 O   0  0  0  0  0  0  0  0  0  0  0  0
   13.0946    4.3941    0.0000 C   0  0  0  0  0  0  0  0  0  0  0  0
   11.6885    4.7749    0.0000 N   0  0  0  0  0  0  0  0  0  0  0  0
   11.4835    3.9547    0.0000 C   0  0  0  0  0  0  0  0  0  0  0  0
   10.6925    3.7497    0.0000 O   0  0  0  0  0  0  0  0  0  0  0  0
   12.0693    3.3688    0.0000 C   0  0  0  0  0  0  0  0  0  0  0  0
   11.8643    2.5779    0.0000 N   0  0  0  0  0  0  0  0  0  0  0  0
   12.8603    3.6032    0.0000 C   0  0  0  0  0  0  0  0  0  0  0  0
   13.4462    3.0173    0.0000 C   0  0  0  0  0  0  0  0  0  0  0  0
   13.3290    2.1971    0.0000 N   0  0  0  0  0  0  0  0  0  0  0  0
   14.0613    1.8162    0.0000 C   0  0  0  0  0  0  0  0  0  0  0  0
   14.6472    2.4021    0.0000 N   0  0  0  0  0  0  0  0  0  0  0  0
   14.2665    3.1344    0.0000 C   0  0  0  0  0  0  0  0  0  0  0  0
   13.8856    4.5992    0.0000 O   0  0  0  0  0  0  0  0  0  0  0  0
   -0.3808    5.1851    0.0000 C   0  0  0  0  0  0  0  0  0  0  0  0
   -0.7909    4.4527    0.0000 C   0  0  0  0  0  0  0  0  0  0  0  0
   -0.7909    5.8882    0.0000 C   0  0  0  0  0  0  0  0  0  0  0  0
   -0.3808    6.6205    0.0000 C   0  0  0  0  0  0  0  0  0  0  0  0
   -0.7909    7.3236    0.0000 S   0  0  0  0  0  0  0  0  0  0  0  0
   -1.6405    7.3236    0.0000 C   0  0  0  0  0  0  0  0  0  0  0  0
   -1.6405    4.4527    0.0000 N   0  0  0  0  0  0  0  0  0  0  0  0
   -0.3808    3.7497    0.0000 O   0  0  0  0  0  0  0  0  0  0  0  0
   -2.0506    5.1851    0.0000 C   0  0  0  0  0  0  0  0  0  0  0  0
   -2.8709    5.1851    0.0000 C   0  0  0  0  0  0  0  0  0  0  0  0
   -1.6405    5.8882    0.0000 C   0  0  0  0  0  0  0  0  0  0  0  0
   -3.2810    5.8882    0.0000 O   0  0  0  0  0  0  0  0  0  0  0  0
   -3.2810    4.4527    0.0000 N   0  0  0  0  0  0  0  0  0  0  0  0
   -4.1012    4.4527    0.0000 C   0  0  0  0  0  0  0  0  0  0  0  0
   -4.5406    3.7497    0.0000 C   0  0  0  0  0  0  0  0  0  0  0  0
   -4.5406    5.1851    0.0000 C   0  0  0  0  0  0  0  0  0  0  0  0
   -5.3608    5.1851    0.0000 C   0  0  0  0  0  0  0  0  0  0  0  0
   -4.1012    5.8882    0.0000 C   0  0  0  0  0  0  0  0  0  0  0  0
   -5.3608    3.7497    0.0000 O   0  0  0  0  0  0  0  0  0  0  0  0
   -4.1012    3.0173    0.0000 N   0  0  0  0  0  0  0  0  0  0  0  0
   -4.5406    2.3142    0.0000 C   0  0  0  0  0  0  0  0  0  0  0  0
   -4.1012    1.5818    0.0000 C   0  0  0  0  0  0  0  0  0  0  0  0
   -5.3608    2.3142    0.0000 C   0  0  0  0  0  0  0  0  0  0  0  0
   -5.7710    3.0173    0.0000 C   0  0  0  0  0  0  0  0  0  0  0  0
   -6.5912    3.0173    0.0000 C   0  0  0  0  0  0  0  0  0  0  0  0
   -7.0013    3.7497    0.0000 C   0  0  0  0  0  0  0  0  0  0  0  0
   -7.8509    3.7497    0.0000 N   0  0  0  0  0  0  0  0  0  0  0  0
   -4.5406    0.8788    0.0000 N   0  0  0  0  0  0  0  0  0  0  0  0
   -3.2810    1.5818    0.0000 O   0  0  0  0  0  0  0  0  0  0  0  0
   -5.3608    0.8788    0.0000 C   0  0  0  0  0  0  0  0  0  0  0  0
   -5.7710    0.1465    0.0000 C   0  0  0  0  0  0  0  0  0  0  0  0
   -5.7710    1.5818    0.0000 C   0  0  0  0  0  0  0  0  0  0  0  0
   -6.5912    0.1465    0.0000 O   0  0  0  0  0  0  0  0  0  0  0  0
   -5.3608   -0.5566    0.0000 N   0  0  0  0  0  0  0  0  0  0  0  0
   -6.5912    1.5818    0.0000 C   0  0  0  0  0  0  0  0  0  0  0  0
   -7.0013    0.8788    0.0000 C   0  0  0  0  0  0  0  0  0  0  0  0
   -7.8509    0.8788    0.0000 C   0  0  0  0  0  0  0  0  0  0  0  0
   -8.2610    0.1465    0.0000 N   0  0  0  0  0  0  0  0  0  0  0  0
   -5.7710   -1.2889    0.0000 C   0  0  0  0  0  0  0  0  0  0  0  0
   -6.5912   -1.2889    0.0000 C   0  0  0  0  0  0  0  0  0  0  0  0
   -7.0013   -1.9920    0.0000 N   0  0  0  0  0  0  0  0  0  0  0  0
   -7.0013   -0.5566    0.0000 O   0  0  0  0  0  0  0  0  0  0  0  0
   -7.8509   -1.9920    0.0000 C   0  0  0  0  0  0  0  0  0  0  0  0
   -8.2610   -1.2889    0.0000 C   0  0  0  0  0  0  0  0  0  0  0  0
   -9.0813   -1.2889    0.0000 C   0  0  0  0  0  0  0  0  0  0  0  0
   -9.4914   -0.5566    0.0000 C   0  0  0  0  0  0  0  0  0  0  0  0
   -9.4914   -1.9920    0.0000 C   0  0  0  0  0  0  0  0  0  0  0  0
   -5.3608   -1.9920    0.0000 C   0  0  0  0  0  0  0  0  0  0  0  0
   -5.7710   -2.7243    0.0000 C   0  0  0  0  0  0  0  0  0  0  0  0
   -6.5912   -2.7243    0.0000 C   0  0  0  0  0  0  0  0  0  0  0  0
   -7.0013   -3.4274    0.0000 C   0  0  0  0  0  0  0  0  0  0  0  0
   -6.5912   -4.1305    0.0000 C   0  0  0  0  0  0  0  0  0  0  0  0
   -5.7710   -4.1305    0.0000 C   0  0  0  0  0  0  0  0  0  0  0  0
   -5.3608   -3.4274    0.0000 C   0  0  0  0  0  0  0  0  0  0  0  0
   -7.0013   -4.8628    0.0000 O   0  0  0  0  0  0  0  0  0  0  0  0
   -8.2610   -2.7243    0.0000 C   0  0  0  0  0  0  0  0  0  0  0  0
   -9.7258   -2.7536    0.0000 N   0  0  0  0  0  0  0  0  0  0  0  0
   -7.8509   -3.4274    0.0000 O   0  0  0  0  0  0  0  0  0  0  0  0
  -10.3117   -2.1677    0.0000 C   0  0  0  0  0  0  0  0  0  0  0  0
  -11.1319   -2.3729    0.0000 C   0  0  0  0  0  0  0  0  0  0  0  0
  -10.1066   -1.3475    0.0000 C   0  0  0  0  0  0  0  0  0  0  0  0
  -10.6925   -0.7616    0.0000 C   0  0  0  0  0  0  0  0  0  0  0  0
  -11.5127   -0.7616    0.0000 N   0  0  0  0  0  0  0  0  0  0  0  0
  -10.3702    0.0000    0.0000 O   0  0  0  0  0  0  0  0  0  0  0  0
  -11.7178   -1.7869    0.0000 O   0  0  0  0  0  0  0  0  0  0  0  0
  -11.3369   -3.1638    0.0000 N   0  0  0  0  0  0  0  0  0  0  0  0
  -12.1572   -3.1638    0.0000 C   0  0  0  0  0  0  0  0  0  0  0  0
  -12.5673   -3.8961    0.0000 C   0  0  0  0  0  0  0  0  0  0  0  0
  -12.5673   -2.4607    0.0000 C   0  0  0  0  0  0  0  0  0  0  0  0
  -12.3623   -1.6405    0.0000 O   0  0  0  0  0  0  0  0  0  0  0  0
  -13.4169   -3.8961    0.0000 O   0  0  0  0  0  0  0  0  0  0  0  0
  -12.1572   -4.5992    0.0000 N   0  0  0  0  0  0  0  0  0  0  0  0
  -12.5673   -5.3316    0.0000 C   0  0  0  0  0  0  0  0  0  0  0  0
  -12.1572   -6.0346    0.0000 C   0  0  0  0  0  0  0  0  0  0  0  0
  -13.4169   -5.3316    0.0000 C   0  0  0  0  0  0  0  0  0  0  0  0
  -13.8270   -6.0346    0.0000 C   0  0  0  0  0  0  0  0  0  0  0  0
  -13.8270   -4.5992    0.0000 C   0  0  0  0  0  0  0  0  0  0  0  0
  -14.6472   -6.0346    0.0000 C   0  0  0  0  0  0  0  0  0  0  0  0
  -12.5673   -6.7670    0.0000 O   0  0  0  0  0  0  0  0  0  0  0  0
  -11.3369   -6.0346    0.0000 N   0  0  0  0  0  0  0  0  0  0  0  0
  -10.9268   -6.7670    0.0000 C   0  0  0  0  0  0  0  0  0  0  0  0
  -10.1066   -6.7670    0.0000 C   0  0  0  0  0  0  0  0  0  0  0  0
  -11.3369   -7.4700    0.0000 C   0  0  0  0  0  0  0  0  0  0  0  0
  -10.9268   -8.2025    0.0000 C   0  0  0  0  0  0  0  0  0  0  0  0
  -11.3369   -8.9055    0.0000 C   0  0  0  0  0  0  0  0  0  0  0  0
  -10.1066   -8.2025    0.0000 C   0  0  0  0  0  0  0  0  0  0  0  0
   -9.6672   -7.4700    0.0000 O   0  0  0  0  0  0  0  0  0  0  0  0
   -9.6672   -6.0346    0.0000 N   0  0  0  0  0  0  0  0  0  0  0  0
   -8.8469   -6.0346    0.0000 C   0  0  0  0  0  0  0  0  0  0  0  0
   -8.4368   -5.3316    0.0000 C   0  0  0  0  0  0  0  0  0  0  0  0
   -8.4368   -6.7670    0.0000 C   0  0  0  0  0  0  0  0  0  0  0  0
   -7.6166   -5.3316    0.0000 O   0  0  0  0  0  0  0  0  0  0  0  0
   -8.8469   -4.5992    0.0000 O   0  0  0  0  0  0  0  0  0  0  0  0
   -7.6166   -6.7670    0.0000 C   0  0  0  0  0  0  0  0  0  0  0  0
   -7.2065   -7.4700    0.0000 N   0  0  0  0  0  0  0  0  0  0  0  0
   -7.2065   -6.0346    0.0000 O   0  0  0  0  0  0  0  0  0  0  0  0
    2.9880   -2.7536    0.0000 C   0  0  0  0  0  0  0  0  0  0  0  0
  1  2  1  0
  1  3  2  0
  1  4  1  0
  2  5  1  0
  2  6  1  6
133  4  1  0
  5 11  1  0
  6  7  1  0
  7  8  1  0
  8  9  1  0
  8 10  2  0
 11 12  1  0
 11 13  2  0
 12 14  1  6
 12 15  1  0
 14 16  1  0
 15 18  1  0
 16 17  1  0
 17 95  1  0
 18 19  1  0
 18 20  2  0
 19 21  1  6
 19 22  1  0
 22 23  1  0
 23 24  1  0
 23 25  2  0
 24 26  1  1
 24 27  1  0
 26 28  1  0
 27 31  1  0
 28 29  1  0
 28 30  1  0
 31 32  1  0
 31 33  2  0
 32 34  1  1
 32 35  1  0
 34 36  1  0
 35 42  1  0
 36 37  1  0
 37 38  1  0
 38 39  1  0
 39 40  2  3
 39 41  1  0
 42 43  1  0
 42 44  2  0
 43 45  1  0
 43 46  1  1
 45 47  1  0
 45 48  1  6
 46 49  1  0
 47229  1  0
 49 50  1  0
 49 51  2  0
 50 52  1  0
 50 53  1  1
 52 61  1  0
 53 54  1  0
 54 55  2  0
 54 59  1  0
 55 56  1  0
 56 57  2  0
 57 58  1  0
 57 60  1  0
 58 59  2  0
 61 62  1  0
 61 63  2  0
 62 64  1  6
 62 65  1  0
 64 66  1  0
 65 69  1  0
 66 67  2  0
 66 68  1  0
 69 70  1  0
 69 71  2  0
 70 72  1  1
 70 73  1  0
 72 74  1  0
 73 77  1  0
 74 75  1  0
 74 76  2  0
 77 78  1  0
 77 79  2  0
 78 80  1  1
 78 81  1  0
 80 84  1  0
 81 82  1  1
 81 83  1  0
 84 85  1  0
 84 86  2  0
 85 87  1  0
 85 88  1  6
 87 97  1  0
 88 89  1  0
 89 90  2  0
 89 94  1  0
 90 91  1  0
 91 92  2  0
 92 93  1  0
 93 94  2  0
 95 96  1  0
 97 98  1  0
 97 99  2  0
 98100  1  6
 98101  1  0
100104  1  0
101102  1  0
101103  1  0
104105  1  0
104106  2  0
105107  1  6
105108  1  0
108109  1  0
109110  1  0
109111  2  0
110112  1  6
110113  1  0
112114  1  0
113117  1  0
114115  2  0
114116  1  0
117118  1  0
117119  2  0
118120  1  6
118121  1  0
120132  1  0
121122  1  0
122123  2  0
122124  1  0
124125  1  6
124126  1  0
126127  1  0
127128  1  0
127131  2  0
128129  1  0
129130  2  0
130131  1  0
133134  1  0
133135  1  6
134139  1  0
134140  2  0
135136  1  0
136137  1  0
137138  1  0
139141  1  0
141142  1  0
141143  1  6
142144  2  0
142145  1  0
146145  1  6
146147  1  0
146148  1  0
147151  2  0
147152  1  0
148149  1  0
148150  1  0
153152  1  0
153154  1  0
153155  1  6
154160  1  0
154161  2  0
155156  1  0
156157  1  0
157158  1  0
158159  1  0
162160  1  0
162163  1  0
162164  1  6
163165  2  0
163166  1  0
164167  1  0
171166  1  0
167168  1  0
168169  1  0
169170  1  0
171172  1  0
171180  1  1
172173  1  0
172174  2  0
175173  1  0
175176  1  6
175188  1  0
176177  1  0
177178  1  0
177179  1  0
180181  1  0
181182  2  0
181186  1  0
182183  1  0
183184  2  0
184185  1  0
184187  1  0
185186  2  0
188189  1  0
188190  2  0
191189  1  0
191192  1  0
191193  1  6
192197  2  0
192198  1  0
193194  1  0
194195  1  0
194196  2  0
199198  1  0
199200  1  0
199201  1  6
200203  2  0
200204  1  0
201202  1  0
205204  1  6
205206  1  0
205207  1  0
206211  2  0
206212  1  0
207208  1  0
207209  1  6
208210  1  0
213212  1  0
213214  1  0
213215  1  6
214219  2  0
214220  1  0
215216  1  0
216217  1  0
216218  1  0
221220  1  0
221222  1  0
221223  1  6
222224  1  0
222225  2  0
223226  1  0
226227  1  0
226228  2  0
M  END
$$$$
