
     RDKit          2D

 12 12  0  0  0  0  0  0  0  0999 V2000
   -0.0223    0.3785    0.0000 C   0  0  0  0  0  0  0  0  0  0  0  0
   -0.7368   -0.0339    0.0000 C   0  0  0  0  0  0  0  0  0  0  0  0
   -0.7368   -0.8590    0.0000 C   0  0  0  0  0  0  0  0  0  0  0  0
   -0.0223   -1.2715    0.0000 C   0  0  0  0  0  0  0  0  0  0  0  0
    0.6922   -0.8590    0.0000 C   0  0  0  0  0  0  0  0  0  0  0  0
    0.6922   -0.0339    0.0000 C   0  0  0  0  0  0  0  0  0  0  0  0
   -1.4513   -1.2715    0.0000 C   0  0  0  0  0  0  0  0  0  0  0  0
   -2.1659   -0.8590    0.0000 N   0  0  0  0  0  0  0  0  0  0  0  0
    1.4067    0.3785    0.0000 S   0  0  0  0  0  0  0  0  0  0  0  0
    2.0543    1.1268    0.0000 O   0  0  0  0  0  0  0  0  0  0  0  0
    1.0271    1.1813    0.0000 O   0  0  0  0  0  0  0  0  0  0  0  0
    1.9321   -0.2574    0.0000 N   0  0  0  0  0  0  0  0  0  0  0  0
  1  2  2  0
  1  6  1  0
  2  3  1  0
  3  4  2  0
  4  5  1  0
  5  6  2  0
  3  7  1  0
  7  8  1  0
  6  9  1  0
  9 10  2  0
 11  9  2  0
  9 12  1  0
M  END
$$$$
