
     RDKit          2D

 44 46  0  0  0  0  0  0  0  0999 V2000
   -2.7329   -0.4348    0.0000 C   0  0  0  0  0  0  0  0  0  0  0  0
   -2.7329   -1.2629    0.0000 N   0  0  0  0  0  0  0  0  0  0  0  0
   -2.0289   -1.6770    0.0000 C   0  0  0  0  0  0  0  0  0  0  0  0
   -1.2836   -1.2629    0.0000 C   0  0  0  0  0  0  0  0  0  0  0  0
   -1.2836   -0.4348    0.0000 C   0  0  0  0  0  0  0  0  0  0  0  0
   -2.0289   -0.0207    0.0000 N   0  0  0  0  0  0  0  0  0  0  0  0
   -0.4969   -1.5114    0.0000 N   0  0  0  0  0  0  0  0  0  0  0  0
   -0.0414   -0.8488    0.0000 C   0  0  0  0  0  0  0  0  0  0  0  0
   -0.4969   -0.1863    0.0000 N   0  0  0  0  0  0  0  0  0  0  0  0
   -3.4368   -0.0207    0.0000 S   0  0  0  0  0  0  0  0  0  0  0  0
   -4.1408   -0.4348    0.0000 C   0  0  0  0  0  0  0  0  0  0  0  0
   -4.8447   -0.0207    0.0000 C   0  0  0  0  0  0  0  0  0  0  0  0
   -5.5487   -0.4348    0.0000 C   0  0  0  0  0  0  0  0  0  0  0  0
   -2.0289   -2.5052    0.0000 N   0  0  0  0  0  0  0  0  0  0  0  0
   -2.7329   -2.9192    0.0000 C   0  0  0  0  0  0  0  0  0  0  0  0
   -0.2070    0.6004    0.0000 C   0  0  0  0  0  0  0  0  0  0  0  0
    0.5797    0.8488    0.0000 O   0  0  0  0  0  0  0  0  0  0  0  0
    0.5797    1.6770    0.0000 C   0  0  0  0  0  0  0  0  0  0  0  0
   -0.2070    1.9668    0.0000 C   0  0  0  0  0  0  0  0  0  0  0  0
   -0.7039    1.3043    0.0000 C   0  0  0  0  0  0  0  0  0  0  0  0
   -1.5320    1.3043    0.0000 O   0  0  0  0  0  0  0  0  0  0  0  0
   -0.4554    2.7536    0.0000 O   0  0  0  0  0  0  0  0  0  0  0  0
    2.6915    2.0911    0.0000 P   0  0  0  0  0  0  0  0  0  0  0  0
    1.9876    1.6770    0.0000 O   0  0  0  0  0  0  0  0  0  0  0  0
    1.2836    2.0911    0.0000 C   0  0  0  0  0  0  0  0  0  0  0  0
   -3.4368   -2.5052    0.0000 C   0  0  0  0  0  0  0  0  0  0  0  0
   -4.1408   -2.9192    0.0000 S   0  0  0  0  0  0  0  0  0  0  0  0
   -4.8447   -2.5052    0.0000 C   0  0  0  0  0  0  0  0  0  0  0  0
   -6.2526   -0.8488    0.0000 F   0  0  0  0  0  0  0  0  0  0  0  0
   -5.9627    0.2691    0.0000 F   0  0  0  0  0  0  0  0  0  0  0  0
   -5.1346   -1.1386    0.0000 F   0  0  0  0  0  0  0  0  0  0  0  0
    3.3955    1.6770    0.0000 O   0  0  0  0  0  0  0  0  0  0  0  0
    4.0993    2.0911    0.0000 P   0  0  0  0  0  0  0  0  0  0  0  0
    4.8033    1.6770    0.0000 C   0  0  0  0  0  0  0  0  0  0  0  0
    5.5072    2.0911    0.0000 P   0  0  0  0  0  0  0  0  0  0  0  0
    6.2526    1.6770    0.0000 O   0  0  0  0  0  0  0  0  0  0  0  0
    2.6915    2.9192    0.0000 O   0  0  0  0  0  0  0  0  0  0  0  0
    2.6915    1.2629    0.0000 O   0  0  0  0  0  0  0  0  0  0  0  0
    4.0993    2.9192    0.0000 O   0  0  0  0  0  0  0  0  0  0  0  0
    4.0993    1.2629    0.0000 O   0  0  0  0  0  0  0  0  0  0  0  0
    4.8033    0.8488    0.0000 Cl  0  0  0  0  0  0  0  0  0  0  0  0
    4.8033    2.5052    0.0000 Cl  0  0  0  0  0  0  0  0  0  0  0  0
    5.5072    2.9192    0.0000 O   0  0  0  0  0  0  0  0  0  0  0  0
    5.5072    1.2629    0.0000 O   0  0  0  0  0  0  0  0  0  0  0  0
  1  2  2  0
  2  3  1  0
  3  4  2  0
  4  5  1  0
  5  6  2  0
  1  6  1  0
  4  7  1  0
  7  8  2  0
  8  9  1  0
  5  9  1  0
  1 10  1  0
 10 11  1  0
 11 12  1  0
 12 13  1  0
  3 14  1  0
 15 14  1  0
 16  9  1  1
 16 17  1  0
 17 18  1  0
 18 19  1  0
 19 20  1  0
 16 20  1  0
 20 21  1  6
 19 22  1  6
 23 24  1  0
 24 25  1  0
 18 25  1  1
 15 26  1  0
 26 27  1  0
 27 28  1  0
 13 29  1  0
 13 30  1  0
 13 31  1  0
 23 32  1  0
 32 33  1  0
 33 34  1  0
 34 35  1  0
 35 36  1  0
 23 37  1  0
 23 38  2  0
 33 39  1  0
 33 40  2  0
 34 41  1  0
 34 42  1  0
 35 43  1  0
 35 44  2  0
M  END
$$$$
