
     RDKit          2D

  8  8  0  0  0  0  0  0  0  0999 V2000
    0.3550   -0.4109    0.0000 N   0  0  0  0  0  0  0  0  0  0  0  0
    0.3646    0.4109    0.0000 C   0  0  0  0  0  0  0  0  0  0  0  0
    1.0796   -0.8340    0.0000 O   0  0  0  0  0  0  0  0  0  0  0  0
    1.0698    0.8145    0.0000 S   0  0  0  0  0  0  0  0  0  0  0  0
   -0.3744   -0.8194    0.0000 C   0  0  0  0  0  0  0  0  0  0  0  0
   -0.3598    0.8340    0.0000 C   0  0  0  0  0  0  0  0  0  0  0  0
   -1.0796   -0.3963    0.0000 C   0  0  0  0  0  0  0  0  0  0  0  0
   -1.0796    0.4255    0.0000 C   0  0  0  0  0  0  0  0  0  0  0  0
  2  1  2  0
  3  1  1  0
  4  2  1  0
  5  1  1  0
  6  2  1  0
  7  5  2  0
  8  7  1  0
  6  8  2  0
M  CHG  2   1   1   3  -1
M  END
$$$$
