
     RDKit          2D

 15 14  0  0  0  0  0  0  0  0999 V2000
   -0.7150    0.2058    0.0000 C   0  0  0  0  0  0  0  0  0  0  0  0
   -1.4299   -0.2058    0.0000 O   0  0  0  0  0  0  0  0  0  0  0  0
   -2.1451    0.2058    0.0000 C   0  0  0  0  0  0  0  0  0  0  0  0
   -2.8602   -0.2058    0.0000 C   0  0  0  0  0  0  0  0  0  0  0  0
   -3.5751    0.2058    0.0000 C   0  0  0  0  0  0  0  0  0  0  0  0
   -4.2901   -0.2058    0.0000 O   0  0  0  0  0  0  0  0  0  0  0  0
   -2.8602   -1.0316    0.0000 O   0  0  0  0  0  0  0  0  0  0  0  0
    0.0000   -0.2058    0.0000 C   0  0  0  0  0  0  0  0  0  0  0  0
    0.7150    0.2058    0.0000 C   0  0  0  0  0  0  0  0  0  0  0  0
    1.4299   -0.2058    0.0000 C   0  0  0  0  0  0  0  0  0  0  0  0
    2.1451    0.2058    0.0000 C   0  0  0  0  0  0  0  0  0  0  0  0
    2.8602   -0.2058    0.0000 C   0  0  0  0  0  0  0  0  0  0  0  0
    3.5751    0.2058    0.0000 C   0  0  0  0  0  0  0  0  0  0  0  0
    4.2901   -0.2058    0.0000 C   0  0  0  0  0  0  0  0  0  0  0  0
   -0.7150    1.0316    0.0000 O   0  0  0  0  0  0  0  0  0  0  0  0
  1  2  1  0
  1  8  1  0
  1 15  2  0
  2  3  1  0
  3  4  1  0
  4  5  1  0
  4  7  1  0
  5  6  1  0
  8  9  1  0
  9 10  1  0
 10 11  1  0
 11 12  1  0
 12 13  1  0
 13 14  1  0
M  END
$$$$
