
     RDKit          2D

 36 37  0  0  1  0  0  0  0  0999 V2000
    5.9887   -0.0442    0.0000 C   0  0  0  0  0  0  0  0  0  0  0  0
    0.0095    2.5256    0.0000 C   0  0  0  0  0  0  0  0  0  0  0  0
    1.3928    2.8423    0.0000 C   0  0  0  0  0  0  0  0  0  0  0  0
    3.1579   -3.2447    0.0000 C   0  0  0  0  0  0  0  0  0  0  0  0
    1.7644   -2.9764    0.0000 C   0  0  0  0  0  0  0  0  0  0  0  0
    5.4102   -0.6243    0.0000 C   0  0  0  0  0  0  0  0  0  0  0  0
    0.1695   -0.9211    0.0000 C   0  0  0  0  0  0  0  0  0  0  0  0
    0.7318   -1.5955    0.0000 C   0  0  0  0  0  0  0  0  0  0  0  0
    0.2941    0.0337    0.0000 C   0  0  0  0  0  0  0  0  0  0  0  0
    1.5800   -1.8219    0.0000 C   0  0  0  0  0  0  0  0  0  0  0  0
   -0.2230   -0.2103    0.0000 C   0  0  0  0  0  0  0  0  0  0  0  0
    3.0023    0.2802    0.0000 C   0  0  0  0  0  0  0  0  0  0  0  0
    0.7926    2.2846    0.0000 C   0  0  0  0  0  0  0  0  0  0  0  0
    2.5386   -2.7083    0.0000 C   0  0  0  0  0  0  0  0  0  0  0  0
    0.6649   -0.5430    0.0000 C   0  0  0  0  0  0  0  0  0  0  0  0
    4.6185   -0.4133    0.0000 C   0  0  0  0  0  0  0  0  0  0  0  0
    3.3337    1.0398    0.0000 C   0  0  0  0  0  0  0  0  0  0  0  0
   -0.3674    0.6431    0.0000 C   0  0  0  0  0  0  0  0  0  0  0  0
    0.9754    1.4859    0.0000 C   0  0  0  0  0  0  0  0  0  0  0  0
    2.6934   -1.9038    0.0000 C   0  0  0  0  0  0  0  0  0  0  0  0
    4.2123   -1.1681    0.0000 C   0  0  0  0  0  0  0  0  0  0  0  0
    4.1780    1.1137    0.0000 C   0  0  0  0  0  0  0  0  0  0  0  0
    1.7938    1.6723    0.0000 C   0  0  0  0  0  0  0  0  0  0  0  0
    1.9315   -1.3928    0.0000 C   0  0  0  0  0  0  0  0  0  0  0  0
    4.6416    0.4364    0.0000 N   0  0  0  0  0  0  0  0  0  0  0  0
    2.6225    1.4884    0.0000 N   0  0  0  0  0  0  0  0  0  0  0  0
    0.1687    1.3002    0.0000 N   0  0  0  0  0  0  0  0  0  0  0  0
    3.5626   -1.7181    0.0000 N   0  0  0  0  0  0  0  0  0  0  0  0
   -1.1595    0.8525    0.0000 O   0  0  0  0  0  0  0  0  0  0  0  0
    4.8489   -1.6839    0.0000 O   0  0  0  0  0  0  0  0  0  0  0  0
    4.5280    1.8544    0.0000 O   0  0  0  0  0  0  0  0  0  0  0  0
    1.7915    2.4916    0.0000 O   0  0  0  0  0  0  0  0  0  0  0  0
    1.3491   -1.9690    0.0000 O   0  0  0  0  0  0  0  0  0  0  0  0
    1.4685   -0.6859    0.0000 O   0  0  0  0  0  0  0  0  0  0  0  0
    2.4148   -1.2640    0.0000 S   0  0  0  0  0  0  0  0  0  0  0  0
    2.7831   -0.5151    0.0000 S   0  0  0  0  0  0  0  0  0  0  0  0
  6  1  1  0
  8  7  1  0
  9  7  2  0
 10  8  1  0
 13  2  1  0
 13  3  1  0
 14  4  1  0
 14  5  1  0
 15  9  1  6
 15 11  1  0
 16  6  2  3
 17 12  1  1
 18 11  1  0
 19 13  1  6
 20 14  1  1
 21 16  1  0
 22 17  1  0
 23 19  1  0
 24 20  1  0
 25 16  1  0
 25 22  2  0
 26 17  1  0
 26 23  2  0
 27 18  2  0
 27 19  1  0
 28 20  1  0
 28 21  2  0
 18 29  1  0
 21 30  1  0
 31 22  1  0
 23 32  1  0
 33 24  2  0
 34 15  1  0
 34 24  1  0
 35 10  1  0
 36 12  1  0
 36 35  1  0
M  END
$$$$
