
     RDKit          2D

 21 23  0  0  0  0  0  0  0  0999 V2000
   -3.1600   -0.3274    0.0000 C   0  0  0  0  0  0  0  0  0  0  0  0
   -3.6349   -1.0020    0.0000 C   0  0  0  0  0  0  0  0  0  0  0  0
   -3.2881   -1.7505    0.0000 C   0  0  0  0  0  0  0  0  0  0  0  0
   -2.4664   -1.8245    0.0000 C   0  0  0  0  0  0  0  0  0  0  0  0
   -1.9915   -1.1499    0.0000 C   0  0  0  0  0  0  0  0  0  0  0  0
   -2.3383   -0.4013    0.0000 C   0  0  0  0  0  0  0  0  0  0  0  0
    0.1954    0.3858    0.0000 C   0  0  0  0  0  0  0  0  0  0  0  0
   -0.5251   -0.0159    0.0000 C   0  0  0  0  0  0  0  0  0  0  0  0
   -0.5374   -0.8408    0.0000 C   0  0  0  0  0  0  0  0  0  0  0  0
    0.1707   -1.2639    0.0000 C   0  0  0  0  0  0  0  0  0  0  0  0
    0.8913   -0.8622    0.0000 C   0  0  0  0  0  0  0  0  0  0  0  0
    0.9036   -0.0373    0.0000 C   0  0  0  0  0  0  0  0  0  0  0  0
   -1.1900   -1.3455    0.0000 S   0  0  0  0  0  0  0  0  0  0  0  0
   -1.9693    0.3365    0.0000 C   0  0  0  0  0  0  0  0  0  0  0  0
   -1.1623    0.5080    0.0000 C   0  0  0  0  0  0  0  0  0  0  0  0
    1.6242    0.3644    0.0000 C   0  0  0  0  0  0  0  0  0  0  0  0
    1.6365    1.1893    0.0000 C   0  0  0  0  0  0  0  0  0  0  0  0
    2.3324   -0.0586    0.0000 C   0  0  0  0  0  0  0  0  0  0  0  0
    3.0530    0.3430    0.0000 O   0  0  0  0  0  0  0  0  0  0  0  0
    2.3201   -0.8836    0.0000 O   0  0  0  0  0  0  0  0  0  0  0  0
   -2.4739    0.9891    0.0000 O   0  0  0  0  0  0  0  0  0  0  0  0
  1  2  2  0
  2  3  1  0
  3  4  2  0
  4  5  1  0
  5  6  2  0
  6  1  1  0
  7  8  2  0
  8  9  1  0
  9 10  2  0
 10 11  1  0
 11 12  2  0
 12  7  1  0
  6 14  1  0
 14 15  1  0
 15  8  1  0
 12 16  1  0
 16 17  1  0
 16 18  1  0
 18 19  1  0
 18 20  2  0
  5 13  1  0
  9 13  1  0
 14 21  2  0
M  END
$$$$
