
     RDKit          2D

 12 11  0  0  0  0  0  0  0  0999 V2000
    1.0547   -0.9668    0.0000 C   0  0  0  0  0  0  0  0  0  0  0  0
    1.7691   -0.5543    0.0000 C   0  0  0  0  0  0  0  0  0  0  0  0
    2.4836   -0.9668    0.0000 C   0  0  0  0  0  0  0  0  0  0  0  0
    3.1981   -0.5543    0.0000 C   0  0  0  0  0  0  0  0  0  0  0  0
    3.9125   -0.1418    0.0000 C   0  0  0  0  0  0  0  0  0  0  0  0
    4.6270   -0.5543    0.0000 O   0  0  0  0  0  0  0  0  0  0  0  0
    0.3402   -0.5543    0.0000 N   0  0  0  0  0  0  0  0  0  0  0  0
    3.9125    0.6832    0.0000 O   0  0  0  0  0  0  0  0  0  0  0  0
    2.7856    0.1601    0.0000 C   0  0  0  0  0  0  0  0  0  0  0  0
    1.9606    0.1601    0.0000 F   0  0  0  0  0  0  0  0  0  0  0  0
    3.1981    0.8746    0.0000 F   0  0  0  0  0  0  0  0  0  0  0  0
    3.0225   -1.2367    0.0000 N   0  0  0  0  0  0  0  0  0  0  0  0
  2  1  1  0
  3  2  1  0
  4  3  1  0
  5  4  1  0
  6  5  1  0
  7  1  1  0
  8  5  2  0
  9  4  1  0
 10  9  1  0
 11  9  1  0
  4 12  1  0
M  END
$$$$
