
     RDKit          2D

 25 26  0  0  1  0  0  0  0  0999 V2000
    3.5220    1.2375    0.0000 S   0  0  0  0  0  0  0  0  0  0  0  0
    4.9509   -2.0625    0.0000 O   0  0  0  0  0  0  0  0  0  0  0  0
    3.5220   -2.0625    0.0000 O   0  0  0  0  0  0  0  0  0  0  0  0
    4.3470    1.2375    0.0000 O   0  0  0  0  0  0  0  0  0  0  0  0
    2.6970    1.2375    0.0000 O   0  0  0  0  0  0  0  0  0  0  0  0
    7.1806   -0.0045    0.0000 N   0  0  0  0  0  0  0  0  0  0  0  0
    5.6655   -0.8250    0.0000 N   0  0  0  0  0  0  0  0  0  0  0  0
    2.0930    0.4125    0.0000 N   0  0  0  0  0  0  0  0  0  0  0  0
    7.0944   -0.8250    0.0000 C   0  0  0  0  0  0  0  0  0  0  0  0
    7.8482   -1.1606    0.0000 C   0  0  0  0  0  0  0  0  0  0  0  0
    8.4002   -0.5475    0.0000 C   0  0  0  0  0  0  0  0  0  0  0  0
    7.9877    0.1670    0.0000 C   0  0  0  0  0  0  0  0  0  0  0  0
    6.3799   -1.2375    0.0000 C   0  0  0  0  0  0  0  0  0  0  0  0
    6.5676    0.5476    0.0000 C   0  0  0  0  0  0  0  0  0  0  0  0
    6.7391    1.3545    0.0000 C   0  0  0  0  0  0  0  0  0  0  0  0
    4.9509   -1.2375    0.0000 C   0  0  0  0  0  0  0  0  0  0  0  0
    4.2365   -0.8250    0.0000 C   0  0  0  0  0  0  0  0  0  0  0  0
    3.5220    0.4125    0.0000 C   0  0  0  0  0  0  0  0  0  0  0  0
    4.2365    0.0000    0.0000 C   0  0  0  0  0  0  0  0  0  0  0  0
    3.5220   -1.2375    0.0000 C   0  0  0  0  0  0  0  0  0  0  0  0
    2.8075    0.0000    0.0000 C   0  0  0  0  0  0  0  0  0  0  0  0
    2.8075   -0.8250    0.0000 C   0  0  0  0  0  0  0  0  0  0  0  0
    3.5220    2.0625    0.0000 C   0  0  0  0  0  0  0  0  0  0  0  0
    4.2365    2.4751    0.0000 C   0  0  0  0  0  0  0  0  0  0  0  0
    2.8075   -2.4751    0.0000 C   0  0  0  0  0  0  0  0  0  0  0  0
  1  4  2  0
  1  5  2  0
  1 18  1  0
  1 23  1  0
  2 16  2  0
  3 20  1  0
  3 25  1  0
  6  9  1  0
  6 12  1  0
  6 14  1  0
  7 13  1  0
  7 16  1  0
  8 21  1  0
  9 10  1  0
  9 13  1  0
 10 11  1  0
 11 12  1  0
 14 15  1  0
 16 17  1  0
 17 19  1  0
 17 20  2  0
 18 19  2  0
 18 21  1  0
 20 22  1  0
 21 22  2  0
 23 24  1  0
M  END
$$$$
