
     RDKit          2D

 19 20  0  0  0  0  0  0  0  0999 V2000
    1.0717   -1.8562    0.0000 C   0  0  0  0  0  0  0  0  0  0  0  0
    1.0717   -1.0312    0.0000 C   0  0  0  0  0  0  0  0  0  0  0  0
    1.7862   -0.6187    0.0000 C   0  0  0  0  0  0  0  0  0  0  0  0
    2.5006   -1.0312    0.0000 C   0  0  0  0  0  0  0  0  0  0  0  0
    2.5006   -1.8562    0.0000 C   0  0  0  0  0  0  0  0  0  0  0  0
    1.7862   -2.2687    0.0000 C   0  0  0  0  0  0  0  0  0  0  0  0
    3.2151   -0.6187    0.0000 C   0  0  0  0  0  0  0  0  0  0  0  0
    3.2151    0.2063    0.0000 O   0  0  0  0  0  0  0  0  0  0  0  0
    3.9296   -1.0312    0.0000 C   0  0  0  0  0  0  0  0  0  0  0  0
    4.6441   -0.6187    0.0000 C   0  0  0  0  0  0  0  0  0  0  0  0
    5.3585   -1.0312    0.0000 C   0  0  0  0  0  0  0  0  0  0  0  0
    5.3585   -1.8562    0.0000 C   0  0  0  0  0  0  0  0  0  0  0  0
    4.6441   -2.2687    0.0000 C   0  0  0  0  0  0  0  0  0  0  0  0
    3.9296   -1.8562    0.0000 C   0  0  0  0  0  0  0  0  0  0  0  0
    6.0730   -0.6187    0.0000 C   0  0  0  0  0  0  0  0  0  0  0  0
    6.7875   -1.0312    0.0000 C   0  0  0  0  0  0  0  0  0  0  0  0
    7.5019   -0.6187    0.0000 O   0  0  0  0  0  0  0  0  0  0  0  0
    6.7875   -1.8562    0.0000 N   0  0  0  0  0  0  0  0  0  0  0  0
    4.6441    0.2063    0.0000 N   0  0  0  0  0  0  0  0  0  0  0  0
  1  2  2  0
  2  3  1  0
  3  4  2  0
  4  5  1  0
  5  6  2  0
  1  6  1  0
  4  7  1  0
  7  8  2  0
  7  9  1  0
  9 10  2  0
 10 11  1  0
 11 12  2  0
 12 13  1  0
 13 14  2  0
  9 14  1  0
 11 15  1  0
 15 16  1  0
 16 17  2  0
 16 18  1  0
 10 19  1  0
M  END
$$$$
