
     RDKit          2D

 25 27  0  0  0  0  0  0  0  0999 V2000
   -2.2059    1.5331    0.0000 C   0  0  0  0  0  0  0  0  0  0  0  0
   -2.9204    1.1206    0.0000 C   0  0  0  0  0  0  0  0  0  0  0  0
   -2.9204    0.2956    0.0000 C   0  0  0  0  0  0  0  0  0  0  0  0
   -2.2059   -0.1168    0.0000 C   0  0  0  0  0  0  0  0  0  0  0  0
   -1.4914    0.2956    0.0000 C   0  0  0  0  0  0  0  0  0  0  0  0
   -1.4914    1.1206    0.0000 C   0  0  0  0  0  0  0  0  0  0  0  0
   -3.6349    1.5331    0.0000 O   0  0  0  0  0  0  0  0  0  0  0  0
   -4.3494    1.1206    0.0000 C   0  0  0  0  0  0  0  0  0  0  0  0
   -3.6349   -0.1168    0.0000 O   0  0  0  0  0  0  0  0  0  0  0  0
   -3.6349   -0.9418    0.0000 C   0  0  0  0  0  0  0  0  0  0  0  0
   -0.7770   -0.1168    0.0000 C   0  0  0  0  0  0  0  0  0  0  0  0
   -0.0625    0.2956    0.0000 C   0  0  0  0  0  0  0  0  0  0  0  0
    0.6519   -0.1168    0.0000 O   0  0  0  0  0  0  0  0  0  0  0  0
    1.3663    0.2956    0.0000 C   0  0  0  0  0  0  0  0  0  0  0  0
    2.6039    1.0101    0.0000 C   0  0  0  0  0  0  0  0  0  0  0  0
    2.1914    1.7245    0.0000 C   0  0  0  0  0  0  0  0  0  0  0  0
    1.3663    1.7245    0.0000 C   0  0  0  0  0  0  0  0  0  0  0  0
    0.9538    1.0101    0.0000 C   0  0  0  0  0  0  0  0  0  0  0  0
    2.1914    0.2956    0.0000 C   0  0  0  0  0  0  0  0  0  0  0  0
    2.6039   -0.4188    0.0000 N   0  0  0  0  0  0  0  0  0  0  0  0
    2.2683   -1.1725    0.0000 C   0  0  0  0  0  0  0  0  0  0  0  0
    2.8814   -1.7245    0.0000 C   0  0  0  0  0  0  0  0  0  0  0  0
    3.5958   -1.3120    0.0000 C   0  0  0  0  0  0  0  0  0  0  0  0
    3.4243   -0.5050    0.0000 C   0  0  0  0  0  0  0  0  0  0  0  0
    4.3495   -1.6475    0.0000 O   0  0  0  0  0  0  0  0  0  0  0  0
  1  2  2  0
  1  6  1  0
  2  3  1  0
  3  4  2  0
  4  5  1  0
  5  6  2  0
  2  7  1  0
  7  8  1  0
  3  9  1  0
  9 10  1  0
  5 11  1  0
 11 12  1  0
 12 13  1  0
 14 13  1  6
 18 14  1  0
 14 19  1  0
 15 16  1  0
 19 15  1  0
 16 17  1  0
 17 18  1  0
 19 20  1  1
 20 21  1  0
 20 24  1  0
 21 22  1  0
 22 23  1  0
 23 24  1  0
 23 25  1  6
M  END
$$$$
