
     RDKit          2D

 18 18  0  0  0  0  0  0  0  0999 V2000
    7.6312    1.9447    0.0000 C   0  0  0  0  0  0  0  0  0  0  0  0
    6.9168    1.5322    0.0000 C   0  0  0  0  0  0  0  0  0  0  0  0
    6.9168    0.7071    0.0000 C   0  0  0  0  0  0  0  0  0  0  0  0
    7.6312    0.2946    0.0000 C   0  0  0  0  0  0  0  0  0  0  0  0
    8.3457    0.7071    0.0000 C   0  0  0  0  0  0  0  0  0  0  0  0
    8.3457    1.5322    0.0000 C   0  0  0  0  0  0  0  0  0  0  0  0
    6.2023    1.9447    0.0000 C   0  0  0  0  0  0  0  0  0  0  0  0
    5.4878    1.5322    0.0000 N   0  0  0  0  0  0  0  0  0  0  0  0
    4.7734    1.9447    0.0000 C   0  0  0  0  0  0  0  0  0  0  0  0
    4.7734    2.7697    0.0000 O   0  0  0  0  0  0  0  0  0  0  0  0
    4.0589    1.5322    0.0000 C   0  0  0  0  0  0  0  0  0  0  0  0
    4.0589    0.7072    0.0000 C   0  0  0  0  0  0  0  0  0  0  0  0
    4.7734    0.2947    0.0000 O   0  0  0  0  0  0  0  0  0  0  0  0
    4.7734   -0.5303    0.0000 C   0  0  0  0  0  0  0  0  0  0  0  0
    3.2620    1.7457    0.0000 N   0  0  0  0  0  0  0  0  0  0  0  0
    2.5475    1.3332    0.0000 C   0  0  0  0  0  0  0  0  0  0  0  0
    2.5475    0.5082    0.0000 O   0  0  0  0  0  0  0  0  0  0  0  0
    1.8331    1.7457    0.0000 C   0  0  0  0  0  0  0  0  0  0  0  0
  1  2  2  0
  2  3  1  0
  3  4  2  0
  4  5  1  0
  5  6  2  0
  1  6  1  0
  2  7  1  0
  7  8  1  0
  8  9  1  0
  9 10  2  0
  9 11  1  0
 11 12  1  1
 12 13  1  0
 13 14  1  0
 11 15  1  0
 15 16  1  0
 16 17  2  0
 16 18  1  0
M  END
$$$$
