
     RDKit          2D

128140  0  0  1  0  0  0  0  0999 V2000
    5.1227   -1.0104    0.0000 Cl  0  0  0  0  0  0  0  0  0  0  0  0
    8.5789    3.9347    0.0000 Cl  0  0  0  0  0  0  0  0  0  0  0  0
    9.0824   -1.9349    0.0000 O   0  0  0  0  0  0  0  0  0  0  0  0
    7.9805   -1.0104    0.0000 O   0  0  0  0  0  0  0  0  0  0  0  0
    7.4809   -3.8435    0.0000 O   0  0  0  0  0  0  0  0  0  0  0  0
    4.4083    7.6682    0.0000 O   0  0  0  0  0  0  0  0  0  0  0  0
    9.1167   -4.1320    0.0000 O   0  0  0  0  0  0  0  0  0  0  0  0
    5.1275    6.4225    0.0000 O   0  0  0  0  0  0  0  0  0  0  0  0
    6.5660    8.9139    0.0000 O   0  0  0  0  0  0  0  0  0  0  0  0
    5.1275    9.7444    0.0000 O   0  0  0  0  0  0  0  0  0  0  0  0
    6.5660    7.2529    0.0000 O   0  0  0  0  0  0  0  0  0  0  0  0
   10.4683   -3.6400    0.0000 O   0  0  0  0  0  0  0  0  0  0  0  0
   10.7180   -2.2234    0.0000 O   0  0  0  0  0  0  0  0  0  0  0  0
    3.6891    9.7444    0.0000 O   0  0  0  0  0  0  0  0  0  0  0  0
    5.5612   -2.7747    0.0000 O   0  0  0  0  0  0  0  0  0  0  0  0
    6.5516   -0.1799    0.0000 O   0  0  0  0  0  0  0  0  0  0  0  0
    9.4093   -0.1799    0.0000 O   0  0  0  0  0  0  0  0  0  0  0  0
    2.2603    6.4225    0.0000 O   0  0  0  0  0  0  0  0  0  0  0  0
    3.1067    0.8828    0.0000 O   0  0  0  0  0  0  0  0  0  0  0  0
    5.8372    6.0128    0.0000 O   0  0  0  0  0  0  0  0  0  0  0  0
    7.2555    3.5379    0.0000 O   0  0  0  0  0  0  0  0  0  0  0  0
    2.2603    2.2922    0.0000 O   0  0  0  0  0  0  0  0  0  0  0  0
    4.3987    1.8882    0.0000 O   0  0  0  0  0  0  0  0  0  0  0  0
    4.8786    3.4805    0.0000 O   0  0  0  0  0  0  0  0  0  0  0  0
    9.3991    1.4646    0.0000 O   0  0  0  0  0  0  0  0  0  0  0  0
   11.5526    3.5380    0.0000 O   0  0  0  0  0  0  0  0  0  0  0  0
   10.6019    5.8515    0.0000 O   0  0  0  0  0  0  0  0  0  0  0  0
    8.6901    5.1850    0.0000 O   0  0  0  0  0  0  0  0  0  0  0  0
   13.7618    3.2484    0.0000 O   0  0  0  0  0  0  0  0  0  0  0  0
   12.2670    7.2502    0.0000 O   0  0  0  0  0  0  0  0  0  0  0  0
    6.9129   -2.2828    0.0000 N   0  0  0  0  0  0  0  0  0  0  0  0
    2.9794    3.5324    0.0000 N   0  0  0  0  0  0  0  0  0  0  0  0
    6.5516    2.2950    0.0000 N   0  0  0  0  0  0  0  0  0  0  0  0
    8.6948    2.7075    0.0000 N   0  0  0  0  0  0  0  0  0  0  0  0
    4.4083    2.7075    0.0000 N   0  0  0  0  0  0  0  0  0  0  0  0
    4.6453    5.0237    0.0000 N   0  0  0  0  0  0  0  0  0  0  0  0
   10.8381    2.2950    0.0000 N   0  0  0  0  0  0  0  0  0  0  0  0
   12.9815    2.7075    0.0000 N   0  0  0  0  0  0  0  0  0  0  0  0
    2.2838    4.2293    0.0000 N   0  0  0  0  0  0  0  0  0  0  0  0
   13.0657    4.1727    0.0000 N   0  0  0  0  0  0  0  0  0  0  0  0
    7.7307   -2.4269    0.0000 C   0  0  0  0  0  0  0  0  0  0  0  0
    8.0148   -3.2073    0.0000 C   0  0  0  0  0  0  0  0  0  0  0  0
    8.8326   -3.3516    0.0000 C   0  0  0  0  0  0  0  0  0  0  0  0
    8.2644   -1.7907    0.0000 C   0  0  0  0  0  0  0  0  0  0  0  0
    9.3663   -2.7154    0.0000 C   0  0  0  0  0  0  0  0  0  0  0  0
    5.8468    8.4987    0.0000 C   0  0  0  0  0  0  0  0  0  0  0  0
    5.1275    8.9139    0.0000 C   0  0  0  0  0  0  0  0  0  0  0  0
    5.8468    7.6682    0.0000 C   0  0  0  0  0  0  0  0  0  0  0  0
    4.4083    8.4987    0.0000 C   0  0  0  0  0  0  0  0  0  0  0  0
    5.1275    7.2529    0.0000 C   0  0  0  0  0  0  0  0  0  0  0  0
   10.1843   -2.8596    0.0000 C   0  0  0  0  0  0  0  0  0  0  0  0
    6.3790   -2.9190    0.0000 C   0  0  0  0  0  0  0  0  0  0  0  0
    3.6891    8.9139    0.0000 C   0  0  0  0  0  0  0  0  0  0  0  0
    6.6631   -3.6993    0.0000 C   0  0  0  0  0  0  0  0  0  0  0  0
    7.9805   -0.1799    0.0000 C   0  0  0  0  0  0  0  0  0  0  0  0
    6.1292   -4.3355    0.0000 C   0  0  0  0  0  0  0  0  0  0  0  0
    6.4132   -5.1159    0.0000 C   0  0  0  0  0  0  0  0  0  0  0  0
    5.8795   -5.7521    0.0000 C   0  0  0  0  0  0  0  0  0  0  0  0
    4.4083    6.0073    0.0000 C   0  0  0  0  0  0  0  0  0  0  0  0
    7.2660    0.2326    0.0000 C   0  0  0  0  0  0  0  0  0  0  0  0
    8.6948    0.2326    0.0000 C   0  0  0  0  0  0  0  0  0  0  0  0
    4.4083    5.1823    0.0000 C   0  0  0  0  0  0  0  0  0  0  0  0
    6.1634   -6.5325    0.0000 C   0  0  0  0  0  0  0  0  0  0  0  0
    7.9805    1.4701    0.0000 C   0  0  0  0  0  0  0  0  0  0  0  0
    3.6940    4.7698    0.0000 C   0  0  0  0  0  0  0  0  0  0  0  0
    5.6296   -7.1686    0.0000 C   0  0  0  0  0  0  0  0  0  0  0  0
    7.9805    2.2950    0.0000 C   0  0  0  0  0  0  0  0  0  0  0  0
    7.2660    1.0575    0.0000 C   0  0  0  0  0  0  0  0  0  0  0  0
    8.6948    1.0575    0.0000 C   0  0  0  0  0  0  0  0  0  0  0  0
    3.6940    3.9448    0.0000 C   0  0  0  0  0  0  0  0  0  0  0  0
    5.9138   -7.9491    0.0000 C   0  0  0  0  0  0  0  0  0  0  0  0
    5.1227    4.7698    0.0000 C   0  0  0  0  0  0  0  0  0  0  0  0
    3.6940    6.4197    0.0000 C   0  0  0  0  0  0  0  0  0  0  0  0
    5.8372    2.7075    0.0000 C   0  0  0  0  0  0  0  0  0  0  0  0
    5.3799   -8.5853    0.0000 C   0  0  0  0  0  0  0  0  0  0  0  0
    3.6940    2.2950    0.0000 C   0  0  0  0  0  0  0  0  0  0  0  0
    5.8372    3.5324    0.0000 C   0  0  0  0  0  0  0  0  0  0  0  0
    2.9794    5.1823    0.0000 C   0  0  0  0  0  0  0  0  0  0  0  0
    5.1227    3.9448    0.0000 C   0  0  0  0  0  0  0  0  0  0  0  0
    2.9794    6.0073    0.0000 C   0  0  0  0  0  0  0  0  0  0  0  0
    5.6639   -9.3657    0.0000 C   0  0  0  0  0  0  0  0  0  0  0  0
    7.2660    2.7075    0.0000 C   0  0  0  0  0  0  0  0  0  0  0  0
    3.6940    1.4701    0.0000 C   0  0  0  0  0  0  0  0  0  0  0  0
    2.9794    2.7075    0.0000 C   0  0  0  0  0  0  0  0  0  0  0  0
    5.8372    5.1823    0.0000 C   0  0  0  0  0  0  0  0  0  0  0  0
    5.1227    2.2950    0.0000 C   0  0  0  0  0  0  0  0  0  0  0  0
    4.4811    4.2096    0.0000 C   0  0  0  0  0  0  0  0  0  0  0  0
    6.5516    3.9448    0.0000 C   0  0  0  0  0  0  0  0  0  0  0  0
    4.4083    1.0575    0.0000 C   0  0  0  0  0  0  0  0  0  0  0  0
    5.8372    0.2326    0.0000 C   0  0  0  0  0  0  0  0  0  0  0  0
    6.5516    4.7698    0.0000 C   0  0  0  0  0  0  0  0  0  0  0  0
   10.1238    0.2326    0.0000 C   0  0  0  0  0  0  0  0  0  0  0  0
    5.1300  -10.0019    0.0000 C   0  0  0  0  0  0  0  0  0  0  0  0
    6.4818   -9.5098    0.0000 C   0  0  0  0  0  0  0  0  0  0  0  0
    9.4093    2.2950    0.0000 C   0  0  0  0  0  0  0  0  0  0  0  0
   10.1238    2.7075    0.0000 C   0  0  0  0  0  0  0  0  0  0  0  0
    4.4083    0.2326    0.0000 C   0  0  0  0  0  0  0  0  0  0  0  0
    5.1227    1.4701    0.0000 C   0  0  0  0  0  0  0  0  0  0  0  0
    5.1227   -0.1799    0.0000 C   0  0  0  0  0  0  0  0  0  0  0  0
    5.8372    1.0575    0.0000 C   0  0  0  0  0  0  0  0  0  0  0  0
    4.0223    5.5731    0.0000 C   0  0  0  0  0  0  0  0  0  0  0  0
   12.2670    2.2950    0.0000 C   0  0  0  0  0  0  0  0  0  0  0  0
   12.2670    1.4701    0.0000 C   0  0  0  0  0  0  0  0  0  0  0  0
   10.1238    1.0575    0.0000 C   0  0  0  0  0  0  0  0  0  0  0  0
   10.8381   -0.1799    0.0000 C   0  0  0  0  0  0  0  0  0  0  0  0
   11.5526    1.0575    0.0000 C   0  0  0  0  0  0  0  0  0  0  0  0
   10.1238    3.5324    0.0000 C   0  0  0  0  0  0  0  0  0  0  0  0
    3.2352    5.3082    0.0000 C   0  0  0  0  0  0  0  0  0  0  0  0
   11.5526    2.7075    0.0000 C   0  0  0  0  0  0  0  0  0  0  0  0
   10.8381    1.4701    0.0000 C   0  0  0  0  0  0  0  0  0  0  0  0
   11.5526    0.2326    0.0000 C   0  0  0  0  0  0  0  0  0  0  0  0
    3.0709    4.4942    0.0000 C   0  0  0  0  0  0  0  0  0  0  0  0
   10.8381    3.9448    0.0000 C   0  0  0  0  0  0  0  0  0  0  0  0
    9.4093    3.9448    0.0000 C   0  0  0  0  0  0  0  0  0  0  0  0
   12.9815    3.5324    0.0000 C   0  0  0  0  0  0  0  0  0  0  0  0
   10.8381    4.7698    0.0000 C   0  0  0  0  0  0  0  0  0  0  0  0
   12.2670    3.9448    0.0000 C   0  0  0  0  0  0  0  0  0  0  0  0
    9.4093    4.7698    0.0000 C   0  0  0  0  0  0  0  0  0  0  0  0
   10.1238    5.1823    0.0000 C   0  0  0  0  0  0  0  0  0  0  0  0
   12.2670    4.7698    0.0000 C   0  0  0  0  0  0  0  0  0  0  0  0
    1.6609    4.7787    0.0000 C   0  0  0  0  0  0  0  0  0  0  0  0
    2.1196    3.4153    0.0000 C   0  0  0  0  0  0  0  0  0  0  0  0
   11.5526    6.0073    0.0000 C   0  0  0  0  0  0  0  0  0  0  0  0
   11.5526    5.1823    0.0000 C   0  0  0  0  0  0  0  0  0  0  0  0
   12.9815    5.1823    0.0000 C   0  0  0  0  0  0  0  0  0  0  0  0
   12.2670    6.4197    0.0000 C   0  0  0  0  0  0  0  0  0  0  0  0
   12.9815    6.0073    0.0000 C   0  0  0  0  0  0  0  0  0  0  0  0
   13.6434    4.7694    0.0000 C   0  0  0  0  0  0  0  0  0  0  0  0
  1 99  1  0
  2114  1  0
  3 44  1  0
  3 45  1  0
 44  4  1  6
  4 55  1  0
 42  5  1  6
  6 49  1  0
  6 50  1  0
 43  7  1  1
 50  8  1  1
  8 59  1  0
 46  9  1  6
 47 10  1  1
 48 11  1  6
 12 51  1  0
 13 51  2  0
 14 53  1  0
 15 52  2  0
 16 60  1  0
 16 90  1  0
 17 61  1  0
 17 92  1  0
 18 80  1  0
 83 19  1  1
 20 85  1  0
 21 82  2  0
 22 84  2  0
 23 86  2  0
 24 87  2  0
 25 95  2  0
 26109  2  0
 27116  1  0
 27123  1  0
 28118  1  0
 29115  2  0
 30126  1  0
 41 31  1  1
 31 52  1  0
 32 70  1  0
 32 84  1  0
 33 74  1  0
 33 82  1  0
 67 34  1  6
 34 95  1  0
 35 76  1  0
 35 86  1  0
 36 87  1  0
 36101  1  0
 37 96  1  0
 37109  1  0
102 38  1  6
 38115  1  0
 39112  1  0
 39121  1  0
 39122  1  0
117 40  1  6
 40128  1  0
 41 42  1  0
 41 44  1  0
 42 43  1  0
 43 45  1  0
 45 51  1  6
 46 47  1  0
 46 48  1  0
 47 49  1  0
 48 50  1  0
 49 53  1  6
 52 54  1  0
 54 56  1  0
 55 60  1  0
 55 61  2  0
 56 57  1  0
 57 58  1  0
 58 63  1  0
 59 62  2  0
 59 73  1  0
 60 68  2  0
 61 69  1  0
 62 65  1  0
 62 72  1  0
 63 66  1  0
 64 67  1  0
 64 68  1  0
 64 69  2  0
 65 70  1  0
 65 78  2  0
 66 71  1  0
 67 82  1  0
 70 87  1  0
 71 75  1  0
 72 79  1  0
 72 85  2  0
 73 80  2  0
 74 77  1  1
 74 86  1  0
 75 81  1  0
 76 83  1  0
 76 84  1  1
 77 79  2  0
 77 88  1  0
 78 80  1  0
 81 93  1  0
 81 94  1  0
 83 89  1  0
 85 91  1  0
 88 91  2  0
 89 97  2  0
 89 98  1  0
 90 99  2  0
 90100  1  0
 92104  2  0
 92105  1  0
 95 96  1  0
 96107  1  6
 97 99  1  0
 98100  2  0
101108  1  0
102103  1  0
102109  1  0
103106  1  0
104110  1  0
105111  2  0
106110  2  0
106111  1  0
107113  2  0
107114  1  0
108112  1  0
113116  1  0
114118  2  0
115117  1  0
116119  2  0
117120  1  0
118119  1  0
120124  1  0
120125  2  0
123124  2  0
123126  1  0
125127  1  0
126127  2  0
M  END
$$$$
