 
     RDKit          2D

 36 39  0  0  0  0  0  0  0  0999 V2000
    5.8656  -12.7691    0.0000 C   0  0  0  0  0  0  0  0  0  0  0  0
    5.8656  -13.5941    0.0000 C   0  0  0  0  0  0  0  0  0  0  0  0
    6.5801  -14.0066    0.0000 C   0  0  0  0  0  0  0  0  0  0  0  0
    7.2945  -13.5941    0.0000 C   0  0  0  0  0  0  0  0  0  0  0  0
    7.2945  -12.7691    0.0000 C   0  0  0  0  0  0  0  0  0  0  0  0
    6.5801  -12.3567    0.0000 N   0  0  0  0  0  0  0  0  0  0  0  0
    8.0090  -14.0066    0.0000 C   0  0  0  0  0  0  0  0  0  0  0  0
    8.7235  -13.5941    0.0000 C   0  0  0  0  0  0  0  0  0  0  0  0
    8.7235  -12.7691    0.0000 C   0  0  0  0  0  0  0  0  0  0  0  0
    8.0090  -12.3567    0.0000 C   0  0  0  0  0  0  0  0  0  0  0  0
    6.5801  -14.8317    0.0000 N   0  0  0  0  0  0  0  0  0  0  0  0
    9.4395  -12.3568    0.0000 O   0  0  0  0  0  0  0  0  0  0  0  0
   10.1551  -12.7699    0.0000 C   0  0  0  0  0  0  0  0  0  0  0  0
    7.2949  -15.2444    0.0000 C   0  0  0  0  0  0  0  0  0  0  0  0
    7.2949  -16.0692    0.0000 C   0  0  0  0  0  0  0  0  0  0  0  0
    8.0094  -16.4817    0.0000 C   0  0  0  0  0  0  0  0  0  0  0  0
    8.7238  -16.0692    0.0000 C   0  0  0  0  0  0  0  0  0  0  0  0
    8.7238  -15.2444    0.0000 C   0  0  0  0  0  0  0  0  0  0  0  0
    8.0094  -14.8319    0.0000 C   0  0  0  0  0  0  0  0  0  0  0  0
    9.4396  -16.4824    0.0000 Cl  0  0  0  0  0  0  0  0  0  0  0  0
   10.8576  -12.3647    0.0000 C   0  0  0  0  0  0  0  0  0  0  0  0
   11.5726  -12.7778    0.0000 C   0  0  0  0  0  0  0  0  0  0  0  0
   12.2682  -12.3764    0.0000 N   0  0  0  0  0  0  0  0  0  0  0  0
   12.9728  -12.7837    0.0000 C   0  0  0  0  0  0  0  0  0  0  0  0
   13.6880  -12.3712    0.0000 C   0  0  0  0  0  0  0  0  0  0  0  0
   13.6883  -11.5456    0.0000 N   0  0  0  0  0  0  0  0  0  0  0  0
   12.9837  -11.1383    0.0000 C   0  0  0  0  0  0  0  0  0  0  0  0
   12.2685  -11.5508    0.0000 C   0  0  0  0  0  0  0  0  0  0  0  0
    9.4318  -14.0241    0.0000 O   0  0  0  0  0  0  0  0  0  0  0  0
   10.1505  -13.6092    0.0000 C   0  0  0  0  0  0  0  0  0  0  0  0
    6.5871  -16.4777    0.0000 Cl  0  0  0  0  0  0  0  0  0  0  0  0
    9.4416  -14.8299    0.0000 O   0  0  0  0  0  0  0  0  0  0  0  0
   10.1661  -15.2484    0.0000 C   0  0  0  0  0  0  0  0  0  0  0  0
    5.1289  -14.0193    0.0000 C   0  0  0  0  0  0  0  0  0  0  0  0
    4.4102  -14.4342    0.0000 N   0  0  0  0  0  0  0  0  0  0  0  0
   14.4148  -11.1267    0.0000 C   0  0  0  0  0  0  0  0  0  0  0  0
  1  2  2  0
  2  3  1  0
  3  4  2  0
  4  5  1  0
  5  6  2  0
  1  6  1  0
  4  7  1  0
  7  8  2  0
  8  9  1  0
  9 10  2  0
  5 10  1  0
  3 11  1  0
  9 12  1  0
 12 13  1  0
 11 14  1  0
 14 15  2  0
 15 16  1  0
 16 17  2  0
 17 18  1  0
 18 19  2  0
 14 19  1  0
 17 20  1  0
 13 21  1  0
 21 22  1  0
 22 23  1  0
 23 24  1  0
 24 25  1  0
 25 26  1  0
 26 27  1  0
 27 28  1  0
 23 28  1  0
  8 29  1  0
 29 30  1  0
 15 31  1  0
 18 32  1  0
 32 33  1  0
  2 34  1  0
 34 35  3  0
 26 36  1  0
M  END
$$$$
