
     RDKit          2D

 20 23  0  0  0  0  0  0  0  0999 V2000
    5.3939    1.6094    0.0000 Cl  0  0  0  0  0  0  0  0  0  0  0  0
    3.0168    3.9691    0.0000 O   0  0  0  0  0  0  0  0  0  0  0  0
    1.6852    1.2041    0.0000 N   0  0  0  0  0  0  0  0  0  0  0  0
    2.6044    2.1620    0.0000 C   0  0  0  0  0  0  0  0  0  0  0  0
    1.8612    2.5199    0.0000 C   0  0  0  0  0  0  0  0  0  0  0  0
    2.4922    1.3497    0.0000 C   0  0  0  0  0  0  0  0  0  0  0  0
    1.2960    1.9258    0.0000 C   0  0  0  0  0  0  0  0  0  0  0  0
    3.3476    2.5199    0.0000 C   0  0  0  0  0  0  0  0  0  0  0  0
    1.6776    3.3242    0.0000 C   0  0  0  0  0  0  0  0  0  0  0  0
    1.3273    0.4607    0.0000 C   0  0  0  0  0  0  0  0  0  0  0  0
    3.5312    3.3242    0.0000 C   0  0  0  0  0  0  0  0  0  0  0  0
    2.1919    3.9691    0.0000 C   0  0  0  0  0  0  0  0  0  0  0  0
    3.9683    1.9259    0.0000 C   0  0  0  0  0  0  0  0  0  0  0  0
    0.8261    3.4391    0.0000 C   0  0  0  0  0  0  0  0  0  0  0  0
    4.3482    3.5901    0.0000 C   0  0  0  0  0  0  0  0  0  0  0  0
    1.8904    4.7737    0.0000 C   0  0  0  0  0  0  0  0  0  0  0  0
    4.7913    2.1727    0.0000 C   0  0  0  0  0  0  0  0  0  0  0  0
    0.5060    4.2365    0.0000 C   0  0  0  0  0  0  0  0  0  0  0  0
    4.9826    3.0104    0.0000 C   0  0  0  0  0  0  0  0  0  0  0  0
    1.0418    4.9083    0.0000 C   0  0  0  0  0  0  0  0  0  0  0  0
  1 17  1  0
  2 11  1  0
  2 12  1  0
  3  6  1  0
  3  7  1  0
  3 10  1  0
  4  5  1  0
  4  6  1  0
  4  8  1  0
  5  7  1  0
  5  9  1  0
  8 11  2  0
  8 13  1  0
  9 12  2  0
  9 14  1  0
 11 15  1  0
 12 16  1  0
 13 17  2  0
 14 18  2  0
 15 19  2  0
 16 20  2  0
 17 19  1  0
 18 20  1  0
M  END
$$$$
