
     RDKit          2D

 18 19  0  0  0  0  0  0  0  0999 V2000
    3.4656    3.5277    0.0000 C   0  0  0  0  0  0  0  0  0  0  0  0
    4.1801    3.1152    0.0000 C   0  0  0  0  0  0  0  0  0  0  0  0
    4.8946    3.5277    0.0000 C   0  0  0  0  0  0  0  0  0  0  0  0
    5.6091    3.1152    0.0000 C   0  0  0  0  0  0  0  0  0  0  0  0
    5.6091    2.2902    0.0000 C   0  0  0  0  0  0  0  0  0  0  0  0
    4.8946    1.8777    0.0000 C   0  0  0  0  0  0  0  0  0  0  0  0
    4.8946    1.0527    0.0000 C   0  0  0  0  0  0  0  0  0  0  0  0
    4.1801    2.2902    0.0000 C   0  0  0  0  0  0  0  0  0  0  0  0
    3.4656    1.8777    0.0000 C   0  0  0  0  0  0  0  0  0  0  0  0
    3.4656    1.0527    0.0000 C   0  0  0  0  0  0  0  0  0  0  0  0
    4.1331    0.5678    0.0000 N   0  0  0  0  0  0  0  0  0  0  0  0
    3.8781   -0.2169    0.0000 C   0  0  0  0  0  0  0  0  0  0  0  0
    3.0531   -0.2169    0.0000 C   0  0  0  0  0  0  0  0  0  0  0  0
    2.7982    0.5678    0.0000 N   0  0  0  0  0  0  0  0  0  0  0  0
    6.3235    3.5277    0.0000 C   0  0  0  0  0  0  0  0  0  0  0  0
    7.0380    3.9402    0.0000 C   0  0  0  0  0  0  0  0  0  0  0  0
    6.7360    2.8132    0.0000 C   0  0  0  0  0  0  0  0  0  0  0  0
    5.9110    4.2422    0.0000 C   0  0  0  0  0  0  0  0  0  0  0  0
  1  2  1  0
  2  3  2  0
  3  4  1  0
  4  5  2  0
  5  6  1  0
  6  7  1  0
  6  8  2  0
  2  8  1  0
  8  9  1  0
  9 10  1  0
 10 11  2  0
 11 12  1  0
 12 13  1  0
 13 14  1  0
 10 14  1  0
  4 15  1  0
 15 16  1  0
 15 17  1  0
 15 18  1  0
M  END
$$$$
