
     RDKit          2D

 77 82  0  0  0  0  0  0  0  0999 V2000
   -1.4289   -0.0754    0.0000 S   0  0  0  0  0  0  0  0  0  0  0  0
   -0.7144    0.3371    0.0000 S   0  0  0  0  0  0  0  0  0  0  0  0
   -2.8579   -1.7254    0.0000 O   0  0  0  0  0  0  0  0  0  0  0  0
    0.0000   -3.3754    0.0000 O   0  0  0  0  0  0  0  0  0  0  0  0
   -4.2868   -0.9004    0.0000 O   0  0  0  0  0  0  0  0  0  0  0  0
    2.8579   -2.5504    0.0000 O   0  0  0  0  0  0  0  0  0  0  0  0
    2.2414    0.0678    0.0000 O   0  0  0  0  0  0  0  0  0  0  0  0
   -4.2868   -0.0754    0.0000 O   0  0  0  0  0  0  0  0  0  0  0  0
   -5.7158    1.5746    0.0000 O   0  0  0  0  0  0  0  0  0  0  0  0
    2.4256    1.1123    0.0000 O   0  0  0  0  0  0  0  0  0  0  0  0
   -3.5724    2.8121    0.0000 O   0  0  0  0  0  0  0  0  0  0  0  0
    5.7158   -2.5504    0.0000 O   0  0  0  0  0  0  0  0  0  0  0  0
   -0.7144   -2.1379    0.0000 N   0  0  0  0  0  0  0  0  0  0  0  0
   -2.8579   -2.5504    0.0000 N   0  0  0  0  0  0  0  0  0  0  0  0
    1.4290   -2.5504    0.0000 N   0  0  0  0  0  0  0  0  0  0  0  0
   -2.8579   -0.9004    0.0000 N   0  0  0  0  0  0  0  0  0  0  0  0
    1.4290   -0.9004    0.0000 N   0  0  0  0  0  0  0  0  0  0  0  0
   -1.5311   -0.9992    0.0000 N   0  0  0  0  0  0  0  0  0  0  0  0
   -3.5724    1.1621    0.0000 N   0  0  0  0  0  0  0  0  0  0  0  0
    0.9967    1.1123    0.0000 N   0  0  0  0  0  0  0  0  0  0  0  0
   -1.6430   -6.1402    0.0000 N   0  0  0  0  0  0  0  0  0  0  0  0
    0.9967    2.7624    0.0000 N   0  0  0  0  0  0  0  0  0  0  0  0
   -5.0013    2.8121    0.0000 N   0  0  0  0  0  0  0  0  0  0  0  0
   -1.4289   -2.5504    0.0000 C   0  0  0  0  0  0  0  0  0  0  0  0
   -3.5724   -2.1379    0.0000 C   0  0  0  0  0  0  0  0  0  0  0  0
   -1.1466   -3.3257    0.0000 C   0  0  0  0  0  0  0  0  0  0  0  0
   -4.2868   -2.5504    0.0000 C   0  0  0  0  0  0  0  0  0  0  0  0
    0.7145   -2.1379    0.0000 C   0  0  0  0  0  0  0  0  0  0  0  0
   -1.6770   -3.9577    0.0000 C   0  0  0  0  0  0  0  0  0  0  0  0
    0.5712   -1.3254    0.0000 C   0  0  0  0  0  0  0  0  0  0  0  0
   -2.1433   -2.1379    0.0000 C   0  0  0  0  0  0  0  0  0  0  0  0
    0.0000   -2.5504    0.0000 C   0  0  0  0  0  0  0  0  0  0  0  0
   -0.2040   -1.0433    0.0000 C   0  0  0  0  0  0  0  0  0  0  0  0
   -1.3948   -4.7329    0.0000 C   0  0  0  0  0  0  0  0  0  0  0  0
   -3.5724   -1.3129    0.0000 C   0  0  0  0  0  0  0  0  0  0  0  0
    2.1434   -1.3129    0.0000 C   0  0  0  0  0  0  0  0  0  0  0  0
   -5.0013   -2.1379    0.0000 C   0  0  0  0  0  0  0  0  0  0  0  0
   -4.2868   -3.3754    0.0000 C   0  0  0  0  0  0  0  0  0  0  0  0
   -0.4294   -0.2547    0.0000 C   0  0  0  0  0  0  0  0  0  0  0  0
    2.1434   -2.1379    0.0000 C   0  0  0  0  0  0  0  0  0  0  0  0
   -2.8579   -0.0754    0.0000 C   0  0  0  0  0  0  0  0  0  0  0  0
    2.8579   -0.9004    0.0000 C   0  0  0  0  0  0  0  0  0  0  0  0
   -0.8835   -1.5025    0.0000 C   0  0  0  0  0  0  0  0  0  0  0  0
   -1.9251   -5.3650    0.0000 C   0  0  0  0  0  0  0  0  0  0  0  0
   -1.2539   -0.2273    0.0000 C   0  0  0  0  0  0  0  0  0  0  0  0
    0.7145    0.3371    0.0000 C   0  0  0  0  0  0  0  0  0  0  0  0
   -2.1433    0.3371    0.0000 C   0  0  0  0  0  0  0  0  0  0  0  0
    0.0066    0.4456    0.0000 C   0  0  0  0  0  0  0  0  0  0  0  0
    1.4290   -0.0754    0.0000 C   0  0  0  0  0  0  0  0  0  0  0  0
   -3.5724    0.3371    0.0000 C   0  0  0  0  0  0  0  0  0  0  0  0
    3.5724   -1.3129    0.0000 C   0  0  0  0  0  0  0  0  0  0  0  0
   -1.6425    0.5003    0.0000 C   0  0  0  0  0  0  0  0  0  0  0  0
    0.0000   -0.0754    0.0000 C   0  0  0  0  0  0  0  0  0  0  0  0
   -4.2868    1.5746    0.0000 C   0  0  0  0  0  0  0  0  0  0  0  0
   -0.3819    1.1734    0.0000 C   0  0  0  0  0  0  0  0  0  0  0  0
   -1.2065    1.2008    0.0000 C   0  0  0  0  0  0  0  0  0  0  0  0
    1.7111    2.3498    0.0000 C   0  0  0  0  0  0  0  0  0  0  0  0
   -5.0013    1.1621    0.0000 C   0  0  0  0  0  0  0  0  0  0  0  0
    4.2869   -0.9004    0.0000 C   0  0  0  0  0  0  0  0  0  0  0  0
    3.5724   -2.1379    0.0000 C   0  0  0  0  0  0  0  0  0  0  0  0
    1.7111    1.5248    0.0000 C   0  0  0  0  0  0  0  0  0  0  0  0
    2.4256    2.7624    0.0000 C   0  0  0  0  0  0  0  0  0  0  0  0
   -4.2868    2.3996    0.0000 C   0  0  0  0  0  0  0  0  0  0  0  0
    2.4256    3.5874    0.0000 C   0  0  0  0  0  0  0  0  0  0  0  0
    5.0014   -1.3129    0.0000 C   0  0  0  0  0  0  0  0  0  0  0  0
    4.2869   -2.5504    0.0000 C   0  0  0  0  0  0  0  0  0  0  0  0
   -5.0013    0.3371    0.0000 C   0  0  0  0  0  0  0  0  0  0  0  0
    5.0014   -2.1379    0.0000 C   0  0  0  0  0  0  0  0  0  0  0  0
    3.1401    3.9999    0.0000 C   0  0  0  0  0  0  0  0  0  0  0  0
    1.7111    3.9999    0.0000 C   0  0  0  0  0  0  0  0  0  0  0  0
    3.1401    4.8249    0.0000 C   0  0  0  0  0  0  0  0  0  0  0  0
    2.4256    5.2374    0.0000 C   0  0  0  0  0  0  0  0  0  0  0  0
    1.7111    4.8249    0.0000 C   0  0  0  0  0  0  0  0  0  0  0  0
    3.8909    5.2430    0.0000 C   0  0  0  0  0  0  0  0  0  0  0  0
    2.4124    6.0967    0.0000 C   0  0  0  0  0  0  0  0  0  0  0  0
    3.8975    6.1024    0.0000 C   0  0  0  0  0  0  0  0  0  0  0  0
    3.1533    6.5320    0.0000 C   0  0  0  0  0  0  0  0  0  0  0  0
  1  2  1  0
  1 47  1  0
  2 53  1  0
  3 31  2  0
  4 32  2  0
  5 35  2  0
  6 40  2  0
  7 49  2  0
  8 50  2  0
  9 58  1  0
 10 61  2  0
 11 63  2  0
 12 68  1  0
 13 24  1  0
 13 32  1  0
 14 25  1  0
 14 31  1  0
 15 28  1  0
 15 40  1  0
 16 35  1  0
 16 41  1  0
 17 36  1  0
 17 49  1  0
 18 43  1  0
 18 45  1  0
 19 50  1  0
 19 54  1  0
 20 46  1  0
 20 61  1  0
 21 44  1  0
 22 57  1  0
 23 63  1  0
 24 26  1  0
 24 31  1  0
 25 27  1  0
 25 35  1  0
 26 29  1  0
 27 37  1  0
 27 38  1  0
 28 30  1  0
 28 32  1  0
 29 34  1  0
 30 33  1  0
 33 39  1  0
 33 43  2  0
 34 44  1  0
 36 40  1  0
 36 42  1  0
 39 45  2  0
 39 48  1  0
 41 47  1  0
 41 50  1  0
 42 51  1  0
 45 52  1  0
 46 49  1  0
 46 53  1  0
 48 55  2  0
 51 59  2  0
 51 60  1  0
 52 56  2  0
 54 58  1  0
 54 63  1  0
 55 56  1  0
 57 61  1  0
 57 62  1  0
 58 67  1  0
 59 65  1  0
 60 66  2  0
 62 64  1  0
 64 69  2  0
 64 70  1  0
 65 68  2  0
 66 68  1  0
 69 71  1  0
 70 73  2  0
 71 72  2  0
 71 74  1  0
 72 73  1  0
 72 75  1  0
 74 76  2  0
 75 77  2  0
 76 77  1  0
M  END
$$$$
