
     RDKit          2D

 21 22  0  0  0  0  0  0  0  0999 V2000
    0.7589    2.0266    0.0000 C   0  0  0  0  0  0  0  0  0  0  0  0
    1.4733    1.6141    0.0000 N   0  0  0  0  0  0  0  0  0  0  0  0
    1.4733    0.7891    0.0000 C   0  0  0  0  0  0  0  0  0  0  0  0
    0.7589    0.3766    0.0000 N   0  0  0  0  0  0  0  0  0  0  0  0
    0.0444    0.7891    0.0000 C   0  0  0  0  0  0  0  0  0  0  0  0
   -0.6701    0.3766    0.0000 N   0  0  0  0  0  0  0  0  0  0  0  0
   -0.6701   -0.4484    0.0000 S   0  0  0  0  0  0  0  0  0  0  0  0
   -1.4951   -0.4484    0.0000 O   0  0  0  0  0  0  0  0  0  0  0  0
    0.1549   -0.4484    0.0000 O   0  0  0  0  0  0  0  0  0  0  0  0
   -0.6701   -1.2734    0.0000 C   0  0  0  0  0  0  0  0  0  0  0  0
    0.0444   -1.6859    0.0000 C   0  0  0  0  0  0  0  0  0  0  0  0
    0.0444   -2.5109    0.0000 C   0  0  0  0  0  0  0  0  0  0  0  0
   -0.6701   -2.9234    0.0000 C   0  0  0  0  0  0  0  0  0  0  0  0
   -0.6701   -3.7484    0.0000 N   0  0  0  0  0  0  0  0  0  0  0  0
   -1.3846   -2.5109    0.0000 C   0  0  0  0  0  0  0  0  0  0  0  0
   -1.3846   -1.6859    0.0000 C   0  0  0  0  0  0  0  0  0  0  0  0
    0.0444    1.6141    0.0000 C   0  0  0  0  0  0  0  0  0  0  0  0
    0.7589    2.8516    0.0000 O   0  0  0  0  0  0  0  0  0  0  0  0
    1.4734    3.2641    0.0000 C   0  0  0  0  0  0  0  0  0  0  0  0
    2.1878    0.3766    0.0000 O   0  0  0  0  0  0  0  0  0  0  0  0
    2.1878   -0.4484    0.0000 C   0  0  0  0  0  0  0  0  0  0  0  0
 18  1  1  0
  1  2  2  0
  1 17  1  0
  2  3  1  0
  3 20  1  0
  3  4  2  0
  4  5  1  0
  5  6  1  0
  5 17  2  0
  6  7  1  0
  7  8  2  0
  7  9  2  0
  7 10  1  0
 10 11  2  0
 10 16  1  0
 11 12  1  0
 12 13  2  0
 13 14  1  0
 13 15  1  0
 15 16  2  0
 18 19  1  0
 20 21  1  0
M  END
$$$$
