
     RDKit          2D

 25 27  0  0  0  0  0  0  0  0999 V2000
    0.7867   -1.0278    0.0000 O   0  0  0  0  0  0  0  0  0  0  0  0
    0.0741   -1.4392    0.0000 C   0  0  0  0  0  0  0  0  0  0  0  0
    0.0741   -2.2620    0.0000 C   0  0  0  0  0  0  0  0  0  0  0  0
    0.7883   -2.6799    0.0000 C   0  0  0  0  0  0  0  0  0  0  0  0
    1.5763   -2.4240    0.0000 O   0  0  0  0  0  0  0  0  0  0  0  0
    2.0634   -3.0942    0.0000 C   0  0  0  0  0  0  0  0  0  0  0  0
    1.5763   -3.7646    0.0000 C   0  0  0  0  0  0  0  0  0  0  0  0
    0.7883   -3.5085    0.0000 C   0  0  0  0  0  0  0  0  0  0  0  0
    0.0741   -3.9170    0.0000 C   0  0  0  0  0  0  0  0  0  0  0  0
    0.0741   -4.7398    0.0000 N   0  0  0  0  0  0  0  0  0  0  0  0
   -0.6399   -3.5075    0.0000 C   0  0  0  0  0  0  0  0  0  0  0  0
   -1.3519   -3.9199    0.0000 Cl  0  0  0  0  0  0  0  0  0  0  0  0
   -0.6399   -2.6799    0.0000 C   0  0  0  0  0  0  0  0  0  0  0  0
   -0.6383   -1.0278    0.0000 N   0  0  0  0  0  0  0  0  0  0  0  0
   -0.6383   -0.2051    0.0000 C   0  0  0  0  0  0  0  0  0  0  0  0
   -1.3520    0.2041    0.0000 C   0  0  0  0  0  0  0  0  0  0  0  0
   -1.3520    1.0311    0.0000 C   0  0  0  0  0  0  0  0  0  0  0  0
   -0.6383    1.4488    0.0000 N   0  0  0  0  0  0  0  0  0  0  0  0
   -0.6383    2.2715    0.0000 C   0  0  0  0  0  0  0  0  0  0  0  0
   -1.3508    2.6829    0.0000 C   0  0  0  0  0  0  0  0  0  0  0  0
   -1.3508    3.5056    0.0000 C   0  0  0  0  0  0  0  0  0  0  0  0
   -2.0634    3.9170    0.0000 O   0  0  0  0  0  0  0  0  0  0  0  0
   -2.0634    4.7398    0.0000 C   0  0  0  0  0  0  0  0  0  0  0  0
    0.0754    1.0311    0.0000 C   0  0  0  0  0  0  0  0  0  0  0  0
    0.0754    0.2041    0.0000 C   0  0  0  0  0  0  0  0  0  0  0  0
  1  2  2  0
  2  3  1  0
  2 14  1  0
  3  4  2  0
  3 13  1  0
  4  5  1  0
  4  8  1  0
  5  6  1  0
  6  7  1  0
  7  8  1  0
  8  9  2  0
  9 10  1  0
  9 11  1  0
 11 12  1  0
 11 13  2  0
 14 15  1  0
 15 16  1  0
 15 25  1  0
 16 17  1  0
 17 18  1  0
 18 19  1  0
 18 24  1  0
 19 20  1  0
 20 21  1  0
 21 22  1  0
 22 23  1  0
 24 25  1  0
M  END
$$$$
