
     RDKit          2D

 10  9  0  0  0  0  0  0  0  0999 V2000
    1.7605    1.8414    0.0000 C   0  0  0  0  0  0  0  0  0  0  0  0
    6.7618    1.4289    0.0000 C   0  0  0  0  0  0  0  0  0  0  0  0
    2.4750    1.4289    0.0000 C   0  0  0  0  0  0  0  0  0  0  0  0
    6.0474    1.8414    0.0000 C   0  0  0  0  0  0  0  0  0  0  0  0
    3.9039    1.4289    0.0000 C   0  0  0  0  0  0  0  0  0  0  0  0
    4.6184    1.8414    0.0000 C   0  0  0  0  0  0  0  0  0  0  0  0
    1.0461    1.4289    0.0000 N   0  0  0  0  0  0  0  0  0  0  0  0
    7.4763    1.8414    0.0000 N   0  0  0  0  0  0  0  0  0  0  0  0
    3.1895    1.8414    0.0000 N   0  0  0  0  0  0  0  0  0  0  0  0
    5.3329    1.4289    0.0000 N   0  0  0  0  0  0  0  0  0  0  0  0
  3  1  1  0
  4  2  1  0
  6  5  1  0
  7  1  1  0
  8  2  1  0
  9  3  1  0
  9  5  1  0
 10  4  1  0
 10  6  1  0
M  END
$$$$
