
     RDKit          2D

 19 19  0  0  0  0  0  0  0  0999 V2000
    5.2224    1.6005    0.0000 P   0  0  0  0  0  0  0  0  0  0  0  0
    3.7935   -0.0495    0.0000 O   0  0  0  0  0  0  0  0  0  0  0  0
    4.5080    1.1880    0.0000 O   0  0  0  0  0  0  0  0  0  0  0  0
    4.8099    2.3150    0.0000 O   0  0  0  0  0  0  0  0  0  0  0  0
    5.9370    2.0130    0.0000 O   0  0  0  0  0  0  0  0  0  0  0  0
    5.6350    0.8861    0.0000 O   0  0  0  0  0  0  0  0  0  0  0  0
    5.2224   -0.8745    0.0000 C   0  0  0  0  0  0  0  0  0  0  0  0
    2.3645   -0.8745    0.0000 C   0  0  0  0  0  0  0  0  0  0  0  0
    4.5080   -1.2870    0.0000 C   0  0  0  0  0  0  0  0  0  0  0  0
    3.0791   -1.2870    0.0000 C   0  0  0  0  0  0  0  0  0  0  0  0
    3.7935   -0.8745    0.0000 C   0  0  0  0  0  0  0  0  0  0  0  0
    4.5080   -2.1120    0.0000 C   0  0  0  0  0  0  0  0  0  0  0  0
    3.0791   -2.1120    0.0000 C   0  0  0  0  0  0  0  0  0  0  0  0
    5.9370   -1.2870    0.0000 C   0  0  0  0  0  0  0  0  0  0  0  0
    5.2224   -0.0495    0.0000 C   0  0  0  0  0  0  0  0  0  0  0  0
    1.6500   -1.2870    0.0000 C   0  0  0  0  0  0  0  0  0  0  0  0
    2.3645   -0.0495    0.0000 C   0  0  0  0  0  0  0  0  0  0  0  0
    3.7935   -2.5246    0.0000 C   0  0  0  0  0  0  0  0  0  0  0  0
    4.5080    0.3630    0.0000 C   0  0  0  0  0  0  0  0  0  0  0  0
  1  3  1  0
  1  4  1  0
  1  5  1  0
  1  6  2  0
  2 11  1  0
  2 19  1  0
  3 19  1  0
  7  9  1  0
  7 14  1  0
  7 15  1  0
  8 10  1  0
  8 16  1  0
  8 17  1  0
  9 11  2  0
  9 12  1  0
 10 11  1  0
 10 13  2  0
 12 18  2  0
 13 18  1  0
M  END
$$$$
