
     RDKit          2D

 40 39  0  0  0  0  0  0  0  0999 V2000
  -15.0414    7.8592    0.0000 C   0  0  0  0  0  0  0  0  0  0  0  0
  -14.3270    8.2717    0.0000 C   0  0  0  0  0  0  0  0  0  0  0  0
  -13.6125    7.8592    0.0000 C   0  0  0  0  0  0  0  0  0  0  0  0
  -12.8980    8.2717    0.0000 C   0  0  0  0  0  0  0  0  0  0  0  0
  -12.1836    7.8592    0.0000 C   0  0  0  0  0  0  0  0  0  0  0  0
  -11.4691    8.2717    0.0000 C   0  0  0  0  0  0  0  0  0  0  0  0
  -10.7546    7.8592    0.0000 C   0  0  0  0  0  0  0  0  0  0  0  0
  -10.0401    8.2717    0.0000 C   0  0  0  0  0  0  0  0  0  0  0  0
   -9.3257    7.8592    0.0000 C   0  0  0  0  0  0  0  0  0  0  0  0
   -8.6112    8.2717    0.0000 C   0  0  0  0  0  0  0  0  0  0  0  0
   -7.8967    7.8592    0.0000 C   0  0  0  0  0  0  0  0  0  0  0  0
   12.1085    7.8592    0.0000 C   0  0  0  0  0  0  0  0  0  0  0  0
   -7.1823    8.2717    0.0000 C   0  0  0  0  0  0  0  0  0  0  0  0
   11.3940    8.2717    0.0000 C   0  0  0  0  0  0  0  0  0  0  0  0
   -5.7533    8.2717    0.0000 C   0  0  0  0  0  0  0  0  0  0  0  0
    9.9650    8.2717    0.0000 C   0  0  0  0  0  0  0  0  0  0  0  0
   -5.0388    7.8592    0.0000 C   0  0  0  0  0  0  0  0  0  0  0  0
    9.2506    7.8592    0.0000 C   0  0  0  0  0  0  0  0  0  0  0  0
   -3.6099    7.8592    0.0000 C   0  0  0  0  0  0  0  0  0  0  0  0
    7.8216    7.8592    0.0000 C   0  0  0  0  0  0  0  0  0  0  0  0
   -2.8954    8.2717    0.0000 C   0  0  0  0  0  0  0  0  0  0  0  0
    7.1072    8.2717    0.0000 C   0  0  0  0  0  0  0  0  0  0  0  0
   -1.4665    8.2717    0.0000 C   0  0  0  0  0  0  0  0  0  0  0  0
    5.6782    8.2717    0.0000 C   0  0  0  0  0  0  0  0  0  0  0  0
   -0.7520    7.8592    0.0000 C   0  0  0  0  0  0  0  0  0  0  0  0
    4.9637    7.8592    0.0000 C   0  0  0  0  0  0  0  0  0  0  0  0
    0.6769    7.8592    0.0000 C   0  0  0  0  0  0  0  0  0  0  0  0
    3.5348    7.8592    0.0000 C   0  0  0  0  0  0  0  0  0  0  0  0
    1.3914    8.2717    0.0000 C   0  0  0  0  0  0  0  0  0  0  0  0
    2.8203    8.2717    0.0000 C   0  0  0  0  0  0  0  0  0  0  0  0
   12.8229    8.2717    0.0000 O   0  0  0  0  0  0  0  0  0  0  0  0
   -6.4678    7.8592    0.0000 O   0  0  0  0  0  0  0  0  0  0  0  0
   10.6795    7.8592    0.0000 O   0  0  0  0  0  0  0  0  0  0  0  0
   -4.3244    8.2717    0.0000 O   0  0  0  0  0  0  0  0  0  0  0  0
    8.5361    8.2717    0.0000 O   0  0  0  0  0  0  0  0  0  0  0  0
   -2.1810    7.8592    0.0000 O   0  0  0  0  0  0  0  0  0  0  0  0
    6.3927    7.8592    0.0000 O   0  0  0  0  0  0  0  0  0  0  0  0
   -0.0376    8.2717    0.0000 O   0  0  0  0  0  0  0  0  0  0  0  0
    4.2493    8.2717    0.0000 O   0  0  0  0  0  0  0  0  0  0  0  0
    2.1059    7.8592    0.0000 O   0  0  0  0  0  0  0  0  0  0  0  0
  2  1  1  0
  3  2  1  0
  4  3  1  0
  5  4  1  0
  6  5  1  0
  7  6  1  0
  8  7  1  0
  9  8  1  0
 10  9  1  0
 11 10  1  0
 13 11  1  0
 14 12  1  0
 17 15  1  0
 18 16  1  0
 21 19  1  0
 22 20  1  0
 25 23  1  0
 26 24  1  0
 29 27  1  0
 30 28  1  0
 31 12  1  0
 32 13  1  0
 32 15  1  0
 33 14  1  0
 33 16  1  0
 34 17  1  0
 34 19  1  0
 35 18  1  0
 35 20  1  0
 36 21  1  0
 36 23  1  0
 37 22  1  0
 37 24  1  0
 38 25  1  0
 38 27  1  0
 39 26  1  0
 39 28  1  0
 40 29  1  0
 40 30  1  0
M  END
$$$$
