
     RDKit          2D

 18 18  0  0  0  0  0  0  0  0999 V2000
    0.0097    0.2294    0.0000 C   0  0  0  0  0  0  0  0  0  0  0  0
    0.0097   -0.5956    0.0000 N   0  0  0  0  0  0  0  0  0  0  0  0
    0.6932   -0.9910    0.0000 C   0  0  0  0  0  0  0  0  0  0  0  0
    0.7128    0.6395    0.0000 N   0  0  0  0  0  0  0  0  0  0  0  0
    1.3719   -1.3865    0.0000 N   0  0  0  0  0  0  0  0  0  0  0  0
   -0.7128    0.6346    0.0000 N   0  0  0  0  0  0  0  0  0  0  0  0
    1.4158    0.2538    0.0000 C   0  0  0  0  0  0  0  0  0  0  0  0
    2.1285    0.6639    0.0000 C   0  0  0  0  0  0  0  0  0  0  0  0
   -2.8510   -0.6102    0.0000 N   0  0  0  0  0  0  0  0  0  0  0  0
   -1.4255    0.2148    0.0000 C   0  0  0  0  0  0  0  0  0  0  0  0
   -1.4255   -0.6102    0.0000 C   0  0  0  0  0  0  0  0  0  0  0  0
   -2.1432    0.6346    0.0000 C   0  0  0  0  0  0  0  0  0  0  0  0
   -2.8510    0.2148    0.0000 C   0  0  0  0  0  0  0  0  0  0  0  0
   -2.1432   -1.0203    0.0000 C   0  0  0  0  0  0  0  0  0  0  0  0
    2.5386    1.3865    0.0000 C   0  0  0  0  0  0  0  0  0  0  0  0
    1.7087    1.3865    0.0000 C   0  0  0  0  0  0  0  0  0  0  0  0
    2.8510    0.2684    0.0000 C   0  0  0  0  0  0  0  0  0  0  0  0
    1.4158   -0.5663    0.0000 C   0  0  0  0  0  0  0  0  0  0  0  0
  2  1  2  0
  3  2  1  0
  4  1  1  0
  5  3  3  0
  6  1  1  0
  7  4  1  0
  8  7  1  0
  9 13  2  0
 10  6  1  0
 11 10  1  0
 12 10  2  0
 13 12  1  0
 14 11  2  0
 15  8  1  0
 16  8  1  0
 17  8  1  0
 18  7  1  0
  9 14  1  0
M  END
$$$$
