
     RDKit          2D

 22 22  0  0  0  0  0  0  0  0999 V2000
    6.3799    0.8250    0.0000 O   0  0  0  0  0  0  0  0  0  0  0  0
    3.5220    4.1251    0.0000 O   0  0  0  0  0  0  0  0  0  0  0  0
    2.0930    3.3001    0.0000 O   0  0  0  0  0  0  0  0  0  0  0  0
    4.9509    0.8250    0.0000 N   0  0  0  0  0  0  0  0  0  0  0  0
    6.3799   -1.6500    0.0000 C   0  0  0  0  0  0  0  0  0  0  0  0
    6.3799   -0.8250    0.0000 C   0  0  0  0  0  0  0  0  0  0  0  0
    7.0944   -2.0625    0.0000 C   0  0  0  0  0  0  0  0  0  0  0  0
    5.6655   -0.4125    0.0000 C   0  0  0  0  0  0  0  0  0  0  0  0
    7.8089   -4.1251    0.0000 C   0  0  0  0  0  0  0  0  0  0  0  0
    7.0944   -2.8876    0.0000 C   0  0  0  0  0  0  0  0  0  0  0  0
    5.6655    0.4125    0.0000 C   0  0  0  0  0  0  0  0  0  0  0  0
    7.8089   -3.3001    0.0000 C   0  0  0  0  0  0  0  0  0  0  0  0
    4.9509    1.6500    0.0000 C   0  0  0  0  0  0  0  0  0  0  0  0
    4.2365    2.0625    0.0000 C   0  0  0  0  0  0  0  0  0  0  0  0
    8.5234   -4.5376    0.0000 C   0  0  0  0  0  0  0  0  0  0  0  0
    7.0944   -4.5376    0.0000 C   0  0  0  0  0  0  0  0  0  0  0  0
    4.2365    2.8876    0.0000 C   0  0  0  0  0  0  0  0  0  0  0  0
    3.5220    1.6500    0.0000 C   0  0  0  0  0  0  0  0  0  0  0  0
    3.5220    3.3001    0.0000 C   0  0  0  0  0  0  0  0  0  0  0  0
    2.8075    2.0625    0.0000 C   0  0  0  0  0  0  0  0  0  0  0  0
    2.8075    2.8876    0.0000 C   0  0  0  0  0  0  0  0  0  0  0  0
    4.2365    4.5376    0.0000 C   0  0  0  0  0  0  0  0  0  0  0  0
  1 11  2  0
  2 19  1  0
  2 22  1  0
  3 21  1  0
  4 11  1  0
  4 13  1  0
  5  6  1  0
  5  7  1  0
  6  8  1  0
  7 10  1  0
  8 11  1  0
  9 12  1  0
  9 15  1  0
  9 16  1  0
 10 12  2  0
 13 14  1  0
 14 17  2  0
 14 18  1  0
 17 19  1  0
 18 20  2  0
 19 21  2  0
 20 21  1  0
M  END
$$$$
