
     RDKit          2D

 27 29  0  0  0  0  0  0  0  0999 V2000
   -2.4956   -1.4643    0.0000 C   0  0  0  0  0  0  0  0  0  0  0  0
   -2.4956   -2.2893    0.0000 C   0  0  0  0  0  0  0  0  0  0  0  0
   -1.7531   -2.7018    0.0000 C   0  0  0  0  0  0  0  0  0  0  0  0
   -1.0518   -2.2893    0.0000 C   0  0  0  0  0  0  0  0  0  0  0  0
   -1.0518   -1.4643    0.0000 C   0  0  0  0  0  0  0  0  0  0  0  0
   -1.7531   -1.0518    0.0000 C   0  0  0  0  0  0  0  0  0  0  0  0
    0.3918   -2.2893    0.0000 C   0  0  0  0  0  0  0  0  0  0  0  0
    0.3918   -1.4643    0.0000 C   0  0  0  0  0  0  0  0  0  0  0  0
   -0.3506   -1.0518    0.0000 C   0  0  0  0  0  0  0  0  0  0  0  0
    1.0931   -2.7018    0.0000 C   0  0  0  0  0  0  0  0  0  0  0  0
    1.7943   -2.2893    0.0000 C   0  0  0  0  0  0  0  0  0  0  0  0
    1.7943   -1.4643    0.0000 C   0  0  0  0  0  0  0  0  0  0  0  0
    1.0931   -1.0518    0.0000 C   0  0  0  0  0  0  0  0  0  0  0  0
   -0.3506   -0.2268    0.0000 N   0  0  0  0  0  0  0  0  0  0  0  0
    0.3918    0.1855    0.0000 C   0  0  0  0  0  0  0  0  0  0  0  0
    0.3918    1.0106    0.0000 C   0  0  0  0  0  0  0  0  0  0  0  0
   -0.3506    1.4643    0.0000 N   0  0  0  0  0  0  0  0  0  0  0  0
   -1.0518    1.0106    0.0000 C   0  0  0  0  0  0  0  0  0  0  0  0
   -1.0518    0.1855    0.0000 C   0  0  0  0  0  0  0  0  0  0  0  0
   -3.1968   -2.7018    0.0000 Cl  0  0  0  0  0  0  0  0  0  0  0  0
   -0.3506    2.2893    0.0000 C   0  0  0  0  0  0  0  0  0  0  0  0
    0.3918    2.7018    0.0000 C   0  0  0  0  0  0  0  0  0  0  0  0
    1.0931    2.2893    0.0000 O   0  0  0  0  0  0  0  0  0  0  0  0
    1.7943    2.6606    0.0000 C   0  0  0  0  0  0  0  0  0  0  0  0
    2.4956    2.2893    0.0000 C   0  0  0  0  0  0  0  0  0  0  0  0
    3.1968    2.6606    0.0000 O   0  0  0  0  0  0  0  0  0  0  0  0
    2.4956    1.4231    0.0000 O   0  0  0  0  0  0  0  0  0  0  0  0
  1  2  2  0
  2  3  1  0
  3  4  2  0
  4  5  1  0
  5  6  2  0
  1  6  1  0
  7  8  2  0
  9  8  1  6
  5  9  1  0
  7 10  1  0
 10 11  2  0
 11 12  1  0
 12 13  2  0
  8 13  1  0
  9 14  1  0
 14 15  1  0
 15 16  1  0
 16 17  1  0
 17 18  1  0
 18 19  1  0
 14 19  1  0
  2 20  1  0
 17 21  1  0
 21 22  1  0
 22 23  1  0
 23 24  1  0
 24 25  1  0
 25 26  1  0
 25 27  2  0
M  END
$$$$
