
     RDKit          2D

 21 20  0  0  0  0  0  0  0  0999 V2000
   -2.1434    1.1740    0.0000 N   0  0  0  0  0  0  0  0  0  0  0  0
    2.1434    1.1740    0.0000 N   0  0  0  0  0  0  0  0  0  0  0  0
    0.0000    0.7615    0.0000 C   0  0  0  0  0  0  0  0  0  0  0  0
    2.8579    0.7615    0.0000 O   0  0  0  0  0  0  0  0  0  0  0  0
   -2.8579    0.7615    0.0000 O   0  0  0  0  0  0  0  0  0  0  0  0
    2.1434    1.9990    0.0000 O   0  0  0  0  0  0  0  0  0  0  0  0
   -2.1434    1.9990    0.0000 O   0  0  0  0  0  0  0  0  0  0  0  0
    1.4289    0.7615    0.0000 O   0  0  0  0  0  0  0  0  0  0  0  0
   -1.4289    0.7615    0.0000 O   0  0  0  0  0  0  0  0  0  0  0  0
   -0.7144    1.1740    0.0000 C   0  0  0  0  0  0  0  0  0  0  0  0
    0.7144    1.1740    0.0000 C   0  0  0  0  0  0  0  0  0  0  0  0
    0.5833    0.1781    0.0000 C   0  0  0  0  0  0  0  0  0  0  0  0
   -0.5833    0.1781    0.0000 C   0  0  0  0  0  0  0  0  0  0  0  0
   -0.3697   -0.6187    0.0000 O   0  0  0  0  0  0  0  0  0  0  0  0
   -0.9531   -1.2021    0.0000 N   0  0  0  0  0  0  0  0  0  0  0  0
   -0.7395   -1.9990    0.0000 O   0  0  0  0  0  0  0  0  0  0  0  0
   -1.7500   -0.9886    0.0000 O   0  0  0  0  0  0  0  0  0  0  0  0
    0.3697   -0.6187    0.0000 O   0  0  0  0  0  0  0  0  0  0  0  0
    0.9531   -1.2021    0.0000 N   0  0  0  0  0  0  0  0  0  0  0  0
    0.7395   -1.9990    0.0000 O   0  0  0  0  0  0  0  0  0  0  0  0
    1.7500   -0.9886    0.0000 O   0  0  0  0  0  0  0  0  0  0  0  0
  9  1  1  0
  5  1  1  0
  7  1  2  0
  8  2  1  0
  4  2  1  0
  6  2  2  0
 10  3  1  0
 11  3  1  0
 11  8  1  0
 10  9  1  0
 12  3  1  0
 13  3  1  0
 13 14  1  0
 14 15  1  0
 15 16  2  0
 15 17  1  0
 12 18  1  0
 18 19  1  0
 19 20  2  0
 19 21  1  0
M  CHG  8   1   1   2   1   4  -1   5  -1  15   1  17  -1  19   1  21  -1
M  END
$$$$
