 
     RDKit          2D

 34 37  0  0  1  0  0  0  0  0999 V2000
   12.0577   -8.3470    0.0000 C   0  0  0  0  0  0  0  0  0  0  0  0
   12.0577   -9.1740    0.0000 C   0  0  0  0  0  0  0  0  0  0  0  0
   12.7739   -9.5875    0.0000 N   0  0  0  0  0  0  0  0  0  0  0  0
   13.4902   -9.1740    0.0000 C   0  0  0  0  0  0  0  0  0  0  0  0
   13.4902   -8.3470    0.0000 N   0  0  0  0  0  0  0  0  0  0  0  0
   12.7739   -7.9335    0.0000 C   0  0  0  0  0  0  0  0  0  0  0  0
   14.2175   -9.5940    0.0000 C   0  0  0  0  0  0  0  0  0  0  0  0
   14.9294   -9.1830    0.0000 N   0  0  0  0  0  0  0  0  0  0  0  0
   15.6278   -9.5864    0.0000 C   0  0  0  0  0  0  0  0  0  0  0  0
   16.3331   -9.1792    0.0000 C   0  0  0  0  0  0  0  0  0  0  0  0
   15.6278  -10.4144    0.0000 O   0  0  0  0  0  0  0  0  0  0  0  0
   17.0348   -9.5844    0.0000 C   0  0  0  0  0  0  0  0  0  0  0  0
   17.7511   -9.1709    0.0000 N   0  0  0  0  0  0  0  0  0  0  0  0
   17.7511   -8.3439    0.0000 C   0  0  0  0  0  0  0  0  0  0  0  0
   17.0494   -7.9387    0.0000 N   0  0  0  0  0  0  0  0  0  0  0  0
   16.3332   -8.3522    0.0000 C   0  0  0  0  0  0  0  0  0  0  0  0
   18.4757   -7.9255    0.0000 N   0  0  0  0  0  0  0  0  0  0  0  0
   17.0348  -10.8682    0.0000 N   0  0  0  0  0  0  0  0  0  0  0  0
   17.7419  -11.2762    0.0000 C   0  0  0  0  0  0  0  0  0  0  0  0
   18.4593  -10.8617    0.0000 C   0  0  0  0  0  0  0  0  0  0  0  0
   18.4757   -7.1005    0.0000 C   0  0  0  0  0  0  0  0  0  0  0  0
   19.2603   -8.1805    0.0000 C   0  0  0  0  0  0  0  0  0  0  0  0
   19.7453   -7.5130    0.0000 C   0  0  0  0  0  0  0  0  0  0  0  0
   19.2603   -6.8456    0.0000 C   0  0  0  0  0  0  0  0  0  0  0  0
   19.1528  -11.2619    0.0000 C   0  0  0  0  0  0  0  0  0  0  0  0
   19.8672  -10.8492    0.0000 C   0  0  0  0  0  0  0  0  0  0  0  0
   19.8670  -10.0242    0.0000 C   0  0  0  0  0  0  0  0  0  0  0  0
   19.1735   -9.6240    0.0000 C   0  0  0  0  0  0  0  0  0  0  0  0
   18.4591  -10.0367    0.0000 C   0  0  0  0  0  0  0  0  0  0  0  0
   20.5931   -9.6046    0.0000 O   0  0  0  0  0  0  0  0  0  0  0  0
   21.3035  -10.0144    0.0000 C   0  0  0  0  0  0  0  0  0  0  0  0
   20.5929  -11.2681    0.0000 Cl  0  0  0  0  0  0  0  0  0  0  0  0
   19.5118   -8.9543    0.0000 C   0  0  0  0  0  0  0  0  0  0  0  0
   20.3368   -8.9543    0.0000 O   0  0  0  0  0  0  0  0  0  0  0  0
  1  2  2  0
  2  3  1  0
  3  4  2  0
  4  5  1  0
  5  6  2  0
  1  6  1  0
  4  7  1  0
  7  8  1  0
  8  9  1  0
  9 10  1  0
  9 11  2  0
 10 12  1  0
 12 13  2  0
 13 14  1  0
 14 15  2  0
 15 16  1  0
 10 16  2  0
 14 17  1  0
 12 18  1  0
 18 19  1  0
 19 20  1  0
 17 21  1  0
 17 22  1  0
 22 23  1  0
 23 24  1  0
 21 24  1  0
 20 25  2  0
 25 26  1  0
 26 27  2  0
 27 28  1  0
 28 29  2  0
 20 29  1  0
 27 30  1  0
 30 31  1  0
 26 32  1  0
 22 33  1  1
 33 34  1  0
M  END
$$$$
