5335
     RDKit          2D

 22 24  0  0  0  0  0  0  0  0999 V2000
    2.8602   -0.2067    0.0000 S   0  0  0  0  0  0  0  0  0  0  0  0
    3.6852   -0.2067    0.0000 O   0  0  0  0  0  0  0  0  0  0  0  0
    2.0352   -0.2067    0.0000 O   0  0  0  0  0  0  0  0  0  0  0  0
    3.6609    1.8514    0.0000 N   0  0  0  0  0  0  0  0  0  0  0  0
    2.8602    0.6184    0.0000 N   0  0  0  0  0  0  0  0  0  0  0  0
    4.4679    2.0229    0.0000 N   0  0  0  0  0  0  0  0  0  0  0  0
    2.8602   -3.5067    0.0000 N   0  0  0  0  0  0  0  0  0  0  0  0
    3.5746    1.0309    0.0000 C   0  0  0  0  0  0  0  0  0  0  0  0
    2.8602   -1.0317    0.0000 C   0  0  0  0  0  0  0  0  0  0  0  0
    3.0478    2.4034    0.0000 C   0  0  0  0  0  0  0  0  0  0  0  0
    4.3284    0.6953    0.0000 C   0  0  0  0  0  0  0  0  0  0  0  0
    2.1457   -1.4442    0.0000 C   0  0  0  0  0  0  0  0  0  0  0  0
    3.5746   -1.4442    0.0000 C   0  0  0  0  0  0  0  0  0  0  0  0
    4.8804    1.3084    0.0000 C   0  0  0  0  0  0  0  0  0  0  0  0
    2.1457   -2.2692    0.0000 C   0  0  0  0  0  0  0  0  0  0  0  0
    3.5746   -2.2692    0.0000 C   0  0  0  0  0  0  0  0  0  0  0  0
    2.2631    2.1485    0.0000 C   0  0  0  0  0  0  0  0  0  0  0  0
    3.2193    3.2104    0.0000 C   0  0  0  0  0  0  0  0  0  0  0  0
    2.8602   -2.6817    0.0000 C   0  0  0  0  0  0  0  0  0  0  0  0
    1.6500    2.7005    0.0000 C   0  0  0  0  0  0  0  0  0  0  0  0
    2.6062    3.7625    0.0000 C   0  0  0  0  0  0  0  0  0  0  0  0
    1.8216    3.5075    0.0000 C   0  0  0  0  0  0  0  0  0  0  0  0
  1  2  2  0
  1  3  2  0
  1  5  1  0
  1  9  1  0
  4  6  1  0
  4  8  1  0
  4 10  1  0
  5  8  1  0
  6 14  2  0
  7 19  1  0
  8 11  2  0
  9 12  2  0
  9 13  1  0
 10 17  2  0
 10 18  1  0
 11 14  1  0
 12 15  1  0
 13 16  2  0
 15 19  2  0
 16 19  1  0
 17 20  1  0
 18 21  2  0
 20 22  2  0
 21 22  1  0
M  END
$$$$
