
     RDKit          2D

 13 12  0  0  0  0  0  0  0  0999 V2000
   -0.0361   -0.7290    0.0000 N   0  0  0  0  0  0  0  0  0  0  0  0
   -0.0361   -3.2040    0.0000 C   0  0  0  0  0  0  0  0  0  0  0  0
   -0.0361   -2.3790    0.0000 Fe  0  0  0  0  0  6  0  0  0  0  0  0
   -0.7506   -1.9664    0.0000 C   0  0  0  0  0  0  0  0  0  0  0  0
   -0.0361   -1.5540    0.0000 C   0  0  0  0  0  0  0  0  0  0  0  0
    0.6783   -1.9664    0.0000 C   0  0  0  0  0  0  0  0  0  0  0  0
    0.6783   -2.7914    0.0000 C   0  0  0  0  0  0  0  0  0  0  0  0
   -0.0361   -4.0290    0.0000 N   0  0  0  0  0  0  0  0  0  0  0  0
    1.3928   -3.2040    0.0000 N   0  0  0  0  0  0  0  0  0  0  0  0
    1.3928   -1.5540    0.0000 N   0  0  0  0  0  0  0  0  0  0  0  0
   -1.4651   -1.5540    0.0000 N   0  0  0  0  0  0  0  0  0  0  0  0
   -1.4651   -3.2040    0.0000 N   0  0  0  0  0  0  0  0  0  0  0  0
   -0.7506   -2.7914    0.0000 C   0  0  0  0  0  0  0  0  0  0  0  0
  1  5  3  0
  2  3  1  0
  8  2  3  0
  3  4  1  0
  3  5  1  0
  6  3  1  0
  7  3  1  0
 13  3  1  0
 11  4  3  0
 10  6  3  0
  9  7  3  0
 12 13  3  0
M  CHG  1   3  -4
M  END
$$$$
