
     RDKit          2D

  4  3  0  0  0  0  0  0  0  0999 V2000
   -0.4125   -4.5081    0.0000 O   0  0  0  0  0  0  0  0  0  0  0  0
   -0.4125   -3.0791    0.0000 O   0  0  0  0  0  0  0  0  0  0  0  0
    0.8251   -3.7937    0.0000 O   0  0  0  0  0  0  0  0  0  0  0  0
    0.0000   -3.7937    0.0000 C   0  0  0  0  0  0  0  0  0  0  0  0
  1  4  1  0
  2  4  1  0
  3  4  2  0
M  CHG  2   1  -1   2  -1
M  END
$$$$
