216235
     RDKit          2D

 29 32  0  0  0  0  0  0  0  0999 V2000
    3.4449   -2.3243    0.0000 Cl  0  0  0  0  0  0  0  0  0  0  0  0
    4.1711    0.1898    0.0000 S   0  0  0  0  0  0  0  0  0  0  0  0
    5.0101    2.1528    0.0000 S   0  0  0  0  0  0  0  0  0  0  0  0
    8.7349   -0.0663    0.0000 O   0  0  0  0  0  0  0  0  0  0  0  0
    8.7349   -1.3942    0.0000 O   0  0  0  0  0  0  0  0  0  0  0  0
    6.5253    1.3322    0.0000 O   0  0  0  0  0  0  0  0  0  0  0  0
    3.3641    0.3613    0.0000 O   0  0  0  0  0  0  0  0  0  0  0  0
    4.9781    0.0182    0.0000 O   0  0  0  0  0  0  0  0  0  0  0  0
    2.5475   -0.3873    0.0000 O   0  0  0  0  0  0  0  0  0  0  0  0
    3.9996   -0.6173    0.0000 N   0  0  0  0  0  0  0  0  0  0  0  0
    1.8801   -0.8722    0.0000 N   0  0  0  0  0  0  0  0  0  0  0  0
    6.5253   -0.3178    0.0000 C   0  0  0  0  0  0  0  0  0  0  0  0
    5.8108    0.0947    0.0000 C   0  0  0  0  0  0  0  0  0  0  0  0
    6.5253   -1.1428    0.0000 C   0  0  0  0  0  0  0  0  0  0  0  0
    4.3426    0.9967    0.0000 C   0  0  0  0  0  0  0  0  0  0  0  0
    5.0963    1.3322    0.0000 C   0  0  0  0  0  0  0  0  0  0  0  0
    7.2398    0.0947    0.0000 C   0  0  0  0  0  0  0  0  0  0  0  0
    5.8108    0.9197    0.0000 C   0  0  0  0  0  0  0  0  0  0  0  0
    7.9542   -0.3178    0.0000 C   0  0  0  0  0  0  0  0  0  0  0  0
    7.9542   -1.1428    0.0000 C   0  0  0  0  0  0  0  0  0  0  0  0
    7.2398   -1.5553    0.0000 C   0  0  0  0  0  0  0  0  0  0  0  0
    5.8108   -1.5553    0.0000 C   0  0  0  0  0  0  0  0  0  0  0  0
    3.7906    1.6098    0.0000 C   0  0  0  0  0  0  0  0  0  0  0  0
    9.2164   -0.7303    0.0000 C   0  0  0  0  0  0  0  0  0  0  0  0
    4.2031    2.3243    0.0000 C   0  0  0  0  0  0  0  0  0  0  0  0
    3.2149   -0.8722    0.0000 C   0  0  0  0  0  0  0  0  0  0  0  0
    2.9600   -1.6569    0.0000 C   0  0  0  0  0  0  0  0  0  0  0  0
    2.1350   -1.6569    0.0000 C   0  0  0  0  0  0  0  0  0  0  0  0
    1.6500   -2.3243    0.0000 C   0  0  0  0  0  0  0  0  0  0  0  0
  1 27  1  0
  2  7  2  0
  2  8  2  0
  2 10  1  0
  2 15  1  0
  3 16  1  0
  3 25  1  0
  4 19  1  0
  4 24  1  0
  5 20  1  0
  5 24  1  0
  6 18  2  0
  9 11  1  0
  9 26  1  0
 10 26  1  0
 11 28  2  0
 12 13  1  0
 12 14  2  0
 12 17  1  0
 13 18  1  0
 14 21  1  0
 14 22  1  0
 15 16  2  0
 15 23  1  0
 16 18  1  0
 17 19  2  0
 19 20  1  0
 20 21  2  0
 23 25  2  0
 26 27  2  0
 27 28  1  0
 28 29  1  0
M  END
$$$$
