Structure #1
     RDKit          2D

 16 18  0  0  0  0  0  0  0  0999 V2000
   -0.7145    1.2375    0.0000 C   0  0  0  0  0  0  0  0  0  0  0  0
   -0.7145    2.0625    0.0000 C   0  0  0  0  0  0  0  0  0  0  0  0
    2.1434    1.2375    0.0000 C   0  0  0  0  0  0  0  0  0  0  0  0
    0.0000    0.8250    0.0000 C   0  0  0  0  0  0  0  0  0  0  0  0
    1.4289    0.8250    0.0000 C   0  0  0  0  0  0  0  0  0  0  0  0
    2.1434    2.0625    0.0000 C   0  0  0  0  0  0  0  0  0  0  0  0
    0.0000    2.4750    0.0000 C   0  0  0  0  0  0  0  0  0  0  0  0
    3.0366    4.7045    0.0000 C   0  0  0  0  0  0  0  0  0  0  0  0
    3.4491    3.9900    0.0000 C   0  0  0  0  0  0  0  0  0  0  0  0
    1.4289    3.3000    0.0000 C   0  0  0  0  0  0  0  0  0  0  0  0
    0.7145    1.2375    0.0000 C   0  0  0  0  0  0  0  0  0  0  0  0
    1.4289    2.4750    0.0000 C   0  0  0  0  0  0  0  0  0  0  0  0
    0.7145    2.0625    0.0000 C   0  0  0  0  0  0  0  0  0  0  0  0
    2.1434    3.7125    0.0000 C   0  0  0  0  0  0  0  0  0  0  0  0
    2.2296    4.5330    0.0000 N   0  0  0  0  0  0  0  0  0  0  0  0
    2.8971    3.3769    0.0000 N   0  0  0  0  0  0  0  0  0  0  0  0
  1  2  2  0
  1  4  1  0
  2  7  1  0
  3  5  2  0
  3  6  1  0
  4 11  2  0
  5 11  1  0
  6 12  2  0
  7 13  2  0
  8  9  1  0
  8 15  1  0
  9 16  1  0
 10 12  1  0
 10 14  1  0
 11 13  1  0
 12 13  1  0
 14 15  2  0
 14 16  1  0
M  END
$$$$
