
     RDKit          2D

 24 28  0  0  0  0  0  0  0  0999 V2000
   20.7380  -13.9364    0.0000 C   0  0  0  0  0  0  0  0  0  0  0  0
   20.2188  -14.5776    0.0000 N   0  0  0  0  0  0  0  0  0  0  0  0
   20.6681  -15.2694    0.0000 N   0  0  0  0  0  0  0  0  0  0  0  0
   21.4650  -15.0559    0.0000 C   0  0  0  0  0  0  0  0  0  0  0  0
   21.5082  -14.2321    0.0000 C   0  0  0  0  0  0  0  0  0  0  0  0
   22.2227  -13.8196    0.0000 C   0  0  0  0  0  0  0  0  0  0  0  0
   22.2227  -15.4696    0.0000 C   0  0  0  0  0  0  0  0  0  0  0  0
   22.9371  -15.0571    0.0000 C   0  0  0  0  0  0  0  0  0  0  0  0
   22.9371  -14.2321    0.0000 C   0  0  0  0  0  0  0  0  0  0  0  0
   23.6516  -13.8196    0.0000 C   0  0  0  0  0  0  0  0  0  0  0  0
   23.6516  -15.4696    0.0000 C   0  0  0  0  0  0  0  0  0  0  0  0
   24.3661  -15.0571    0.0000 C   0  0  0  0  0  0  0  0  0  0  0  0
   24.3661  -14.2321    0.0000 C   0  0  0  0  0  0  0  0  0  0  0  0
   24.3661  -12.5821    0.0000 C   0  0  0  0  0  0  0  0  0  0  0  0
   23.6516  -12.9946    0.0000 C   0  0  0  0  0  0  0  0  0  0  0  0
   25.0805  -13.8196    0.0000 C   0  0  0  0  0  0  0  0  0  0  0  0
   25.8076  -12.7001    0.0000 C   0  0  0  0  0  0  0  0  0  0  0  0
   25.0805  -12.9946    0.0000 C   0  0  0  0  0  0  0  0  0  0  0  0
   25.8774  -14.0331    0.0000 C   0  0  0  0  0  0  0  0  0  0  0  0
   26.3267  -13.3412    0.0000 C   0  0  0  0  0  0  0  0  0  0  0  0
   22.9371  -13.4071    0.0000 C   0  0  0  0  0  0  0  0  0  0  0  0
   25.0805  -12.1696    0.0000 C   0  0  0  0  0  0  0  0  0  0  0  0
   25.8076  -11.8751    0.0000 O   0  0  0  0  0  0  0  0  0  0  0  0
   26.5220  -12.2876    0.0000 C   0  0  0  0  0  0  0  0  0  0  0  0
  1  2  1  0
  2  3  1  0
  3  4  2  0
  1  5  2  0
  6  5  1  0
  5  4  1  0
  4  7  1  0
  8  7  1  1
  6  9  1  0
 10  9  1  0
  9  8  1  0
  8 11  1  0
 11 12  1  0
 13 12  1  6
 13 16  1  0
 10 13  1  0
 10 15  1  1
 14 15  1  0
 14 18  1  0
 16 19  1  1
 17 18  1  0
 19 20  1  0
 17 20  1  0
 18 16  1  0
  9 21  1  1
 18 22  1  1
 17 23  1  0
 17 24  1  6
M  END
$$$$
