
     RDKit          2D

 51 55  0  0  0  0  0  0  0  0999 V2000
   -3.3402   -3.6085    0.0000 C   0  0  0  0  0  0  0  0  0  0  0  0
    0.9040   -1.7652    0.0000 C   0  0  0  0  0  0  0  0  0  0  0  0
    3.3790    5.3794    0.0000 C   0  0  0  0  0  0  0  0  0  0  0  0
    1.7290    1.0926    0.0000 C   0  0  0  0  0  0  0  0  0  0  0  0
    4.6165    0.3781    0.0000 C   0  0  0  0  0  0  0  0  0  0  0  0
    4.2040    1.0926    0.0000 C   0  0  0  0  0  0  0  0  0  0  0  0
   -4.6165    1.1445    0.0000 C   0  0  0  0  0  0  0  0  0  0  0  0
   -3.1876    1.1445    0.0000 C   0  0  0  0  0  0  0  0  0  0  0  0
   -4.6165    0.3195    0.0000 C   0  0  0  0  0  0  0  0  0  0  0  0
   -3.1876    0.3195    0.0000 C   0  0  0  0  0  0  0  0  0  0  0  0
   -1.9254   -5.2301    0.0000 C   0  0  0  0  0  0  0  0  0  0  0  0
   -1.2580   -4.7451    0.0000 C   0  0  0  0  0  0  0  0  0  0  0  0
    4.2040   -0.3362    0.0000 C   0  0  0  0  0  0  0  0  0  0  0  0
   -2.7653   -4.0740    0.0000 C   0  0  0  0  0  0  0  0  0  0  0  0
   -3.9020    2.3820    0.0000 C   0  0  0  0  0  0  0  0  0  0  0  0
    3.3790    3.9505    0.0000 C   0  0  0  0  0  0  0  0  0  0  0  0
    2.9665    1.8071    0.0000 C   0  0  0  0  0  0  0  0  0  0  0  0
   -4.5695   -1.4028    0.0000 C   0  0  0  0  0  0  0  0  0  0  0  0
   -2.2704   -1.9481    0.0000 C   0  0  0  0  0  0  0  0  0  0  0  0
   -0.8183   -0.3833    0.0000 C   0  0  0  0  0  0  0  0  0  0  0  0
   -0.8183   -1.7182    0.0000 C   0  0  0  0  0  0  0  0  0  0  0  0
   -3.0046   -2.8549    0.0000 C   0  0  0  0  0  0  0  0  0  0  0  0
    0.4915   -1.0507    0.0000 C   0  0  0  0  0  0  0  0  0  0  0  0
   -3.9020    1.5570    0.0000 C   0  0  0  0  0  0  0  0  0  0  0  0
   -3.9020   -0.0929    0.0000 C   0  0  0  0  0  0  0  0  0  0  0  0
    3.3790    1.0926    0.0000 C   0  0  0  0  0  0  0  0  0  0  0  0
   -2.6791   -4.8945    0.0000 C   0  0  0  0  0  0  0  0  0  0  0  0
   -2.0979   -3.5891    0.0000 C   0  0  0  0  0  0  0  0  0  0  0  0
   -1.3442   -3.9247    0.0000 C   0  0  0  0  0  0  0  0  0  0  0  0
   -3.9020   -0.9179    0.0000 C   0  0  0  0  0  0  0  0  0  0  0  0
    2.9665    3.2360    0.0000 C   0  0  0  0  0  0  0  0  0  0  0  0
    2.9665    0.3781    0.0000 C   0  0  0  0  0  0  0  0  0  0  0  0
   -3.4895   -2.1874    0.0000 C   0  0  0  0  0  0  0  0  0  0  0  0
    1.7290   -0.3362    0.0000 C   0  0  0  0  0  0  0  0  0  0  0  0
   -2.1841   -2.7686    0.0000 C   0  0  0  0  0  0  0  0  0  0  0  0
   -3.3465   -5.3794    0.0000 F   0  0  0  0  0  0  0  0  0  0  0  0
   -0.6768   -3.4397    0.0000 F   0  0  0  0  0  0  0  0  0  0  0  0
   -3.9020    3.2070    0.0000 N   0  0  0  0  0  0  0  0  0  0  0  0
    2.9665    4.6650    0.0000 N   0  0  0  0  0  0  0  0  0  0  0  0
    3.3790   -0.3362    0.0000 N   0  0  0  0  0  0  0  0  0  0  0  0
   -1.6029   -0.6382    0.0000 N   0  0  0  0  0  0  0  0  0  0  0  0
   -3.2346   -1.4028    0.0000 N   0  0  0  0  0  0  0  0  0  0  0  0
    2.1415    0.3781    0.0000 N   0  0  0  0  0  0  0  0  0  0  0  0
   -0.3334   -1.0507    0.0000 N   0  0  0  0  0  0  0  0  0  0  0  0
   -1.6029   -1.4632    0.0000 N   0  0  0  0  0  0  0  0  0  0  0  0
    2.1415    3.2360    0.0000 O   0  0  0  0  0  0  0  0  0  0  0  0
    2.1415   -1.0507    0.0000 O   0  0  0  0  0  0  0  0  0  0  0  0
   -1.3637   -2.6824    0.0000 O   0  0  0  0  0  0  0  0  0  0  0  0
    3.3790    2.5215    0.0000 O   0  0  0  0  0  0  0  0  0  0  0  0
    0.9040   -0.3362    0.0000 O   0  0  0  0  0  0  0  0  0  0  0  0
   -4.3145   -2.1874    0.0000 S   0  0  0  0  0  0  0  0  0  0  0  0
  6  5  2  0
  9  7  2  0
 10  8  1  0
 12 11  2  0
 13  5  1  0
 22  1  1  1
 23  2  1  0
 24  7  1  0
 24  8  2  0
 24 15  1  0
 25  9  1  0
 25 10  2  0
 26  6  1  0
 26 17  1  0
 27 11  1  0
 27 14  2  0
 28 14  1  0
 29 12  1  0
 29 28  2  0
 30 18  2  0
 30 25  1  0
 31 16  1  0
 32 26  2  0
 33 22  1  0
 35 19  1  0
 35 22  1  0
 35 28  1  0
 36 27  1  0
 37 29  1  0
 38 15  3  0
 39  3  1  0
 39 16  1  0
 40 13  2  0
 40 32  1  0
 41 20  2  0
 42 30  1  0
 42 33  2  0
 43  4  1  0
 43 32  1  0
 43 34  1  0
 44 20  1  0
 44 21  2  0
 44 23  1  0
 45 19  1  0
 45 21  1  0
 45 41  1  0
 46 31  2  0
 47 34  2  0
 35 48  1  1
 49 17  1  0
 49 31  1  0
 50 23  1  0
 50 34  1  0
 51 18  1  0
 51 33  1  0
M  CHG  1  44   1
M  END
$$$$
