
     RDKit          2D

 13 12  0  0  0  0  0  0  0  0999 V2000
   -0.7183    1.4497    0.0000 C   0  0  0  0  0  0  0  0  0  0  0  0
   -1.4328    1.0371    0.0000 O   0  0  0  0  0  0  0  0  0  0  0  0
   -0.7183   -0.2004    0.0000 C   0  0  0  0  0  0  0  0  0  0  0  0
   -0.0039    0.2121    0.0000 C   0  0  0  0  0  0  0  0  0  0  0  0
   -0.0039    1.0371    0.0000 C   0  0  0  0  0  0  0  0  0  0  0  0
    0.7106    1.4497    0.0000 N   0  0  0  0  0  0  0  0  0  0  0  0
    1.4251    0.2121    0.0000 O   0  0  0  0  0  0  0  0  0  0  0  0
    1.4251    1.0371    0.0000 C   0  0  0  0  0  0  0  0  0  0  0  0
    2.1395    1.4497    0.0000 N   0  0  0  0  0  0  0  0  0  0  0  0
   -0.7183   -1.0254    0.0000 C   0  0  0  0  0  0  0  0  0  0  0  0
   -0.0039   -1.4379    0.0000 O   0  0  0  0  0  0  0  0  0  0  0  0
   -0.7183    2.2747    0.0000 O   0  0  0  0  0  0  0  0  0  0  0  0
   -1.4328   -1.4379    0.0000 O   0  0  0  0  0  0  0  0  0  0  0  0
  1  2  1  0
  1  5  1  0
  5  4  1  1
  6  8  1  0
  9  8  1  0
  8  7  2  0
  4  3  1  0
  3 10  1  0
 10 11  2  0
  1 12  2  0
 10 13  1  0
  5  6  1  0
M  END
$$$$
