
     RDKit          2D

 36 39  0  0  1  0  0  0  0  0999 V2000
    5.9746    4.3611    0.0000 C   0  0  0  0  0  0  0  0  0  0  0  0
    6.0341    3.5382    0.0000 C   0  0  0  0  0  0  0  0  0  0  0  0
    5.3513    3.0752    0.0000 C   0  0  0  0  0  0  0  0  0  0  0  0
    5.4108    2.2524    0.0000 C   0  0  0  0  0  0  0  0  0  0  0  0
    6.1532    1.8925    0.0000 O   0  0  0  0  0  0  0  0  0  0  0  0
    4.8978    1.8460    0.0000 O   0  0  0  0  0  0  0  0  0  0  0  0
    4.7875    0.9666    0.0000 C   0  0  0  0  0  0  0  0  0  0  0  0
    5.0168    0.1741    0.0000 C   0  0  0  0  0  0  0  0  0  0  0  0
    4.3340   -0.2889    0.0000 C   0  0  0  0  0  0  0  0  0  0  0  0
    3.6826    0.2174    0.0000 C   0  0  0  0  0  0  0  0  0  0  0  0
    3.9629    0.9934    0.0000 C   0  0  0  0  0  0  0  0  0  0  0  0
    3.4311    1.6241    0.0000 C   0  0  0  0  0  0  0  0  0  0  0  0
    2.6190    1.4789    0.0000 C   0  0  0  0  0  0  0  0  0  0  0  0
    2.3387    0.7029    0.0000 C   0  0  0  0  0  0  0  0  0  0  0  0
    2.8705    0.0722    0.0000 C   0  0  0  0  0  0  0  0  0  0  0  0
    2.5902   -0.7037    0.0000 C   0  0  0  0  0  0  0  0  0  0  0  0
    1.7781   -0.8489    0.0000 C   0  0  0  0  0  0  0  0  0  0  0  0
    1.2463   -0.2182    0.0000 C   0  0  0  0  0  0  0  0  0  0  0  0
    0.4342   -0.3634    0.0000 C   0  0  0  0  0  0  0  0  0  0  0  0
   -0.0976    0.2673    0.0000 C   0  0  0  0  0  0  0  0  0  0  0  0
   -0.9098    0.1221    0.0000 O   0  0  0  0  0  0  0  0  0  0  0  0
    0.1827    1.0432    0.0000 C   0  0  0  0  0  0  0  0  0  0  0  0
    0.9948    1.1884    0.0000 C   0  0  0  0  0  0  0  0  0  0  0  0
    1.5266    0.5577    0.0000 C   0  0  0  0  0  0  0  0  0  0  0  0
    1.4672    1.3619    0.0000 C   0  0  0  0  0  0  0  0  0  0  0  0
    1.4978   -1.6248    0.0000 F   0  0  0  0  0  0  0  0  0  0  0  0
    2.1376    1.3559    0.0000 F   0  0  0  0  0  0  0  0  0  0  0  0
    2.0872    2.1096    0.0000 O   0  0  0  0  0  0  0  0  0  0  0  0
    4.2096    1.7924    0.0000 C   0  0  0  0  0  0  0  0  0  0  0  0
    5.5996    1.1118    0.0000 C   0  0  0  0  0  0  0  0  0  0  0  0
    6.2825    1.5747    0.0000 O   0  0  0  0  0  0  0  0  0  0  0  0
    6.1315    0.4811    0.0000 C   0  0  0  0  0  0  0  0  0  0  0  0
    5.8512   -0.2949    0.0000 O   0  0  0  0  0  0  0  0  0  0  0  0
    6.3830   -0.9256    0.0000 C   0  0  0  0  0  0  0  0  0  0  0  0
    7.1951   -0.7804    0.0000 O   0  0  0  0  0  0  0  0  0  0  0  0
    6.1027   -1.7015    0.0000 C   0  0  0  0  0  0  0  0  0  0  0  0
  1  2  1  0
  2  3  1  0
  3  4  1  0
  4  5  2  0
  4  6  1  0
  7  6  1  6
  7  8  1  0
  8  9  1  0
 10  9  1  1
 10 11  1  0
  7 11  1  0
 11 12  1  0
 12 13  1  0
 13 14  1  0
 14 15  1  0
 10 15  1  0
 15 16  1  6
 16 17  1  0
 17 18  1  0
 18 19  2  0
 19 20  1  0
 20 21  2  0
 20 22  1  0
 22 23  2  0
 23 24  1  0
 18 24  1  0
 14 24  1  0
 24 25  1  1
 17 26  1  6
 14 27  1  6
 13 28  1  1
 11 29  1  1
  7 30  1  0
 30 31  2  0
 30 32  1  0
 32 33  1  0
 33 34  1  0
 34 35  2  0
 34 36  1  0
M  END
$$$$
