
     RDKit          2D

 17 17  0  0  0  0  0  0  0  0999 V2000
   -1.0131    0.4280    0.0000 C   0  0  0  0  0  0  0  0  0  0  0  0
   -1.0131    1.1780    0.0000 P   0  0  0  0  0  0  0  0  0  0  0  0
   -1.0131   -0.3180    0.0000 P   0  0  0  0  0  0  0  0  0  0  0  0
   -0.2356    0.3652    0.0000 N   0  0  0  0  0  0  0  0  0  0  0  0
   -0.3063    1.2370    0.0000 O   0  0  0  0  0  0  0  0  0  0  0  0
   -0.2709   -0.3258    0.0000 O   0  0  0  0  0  0  0  0  0  0  0  0
   -1.0170    1.9202    0.0000 O   0  0  0  0  0  0  0  0  0  0  0  0
   -1.0170   -1.0680    0.0000 O   0  0  0  0  0  0  0  0  0  0  0  0
   -1.7671   -0.3141    0.0000 O   0  0  0  0  0  0  0  0  0  0  0  0
   -1.7671    1.1780    0.0000 O   0  0  0  0  0  0  0  0  0  0  0  0
    0.2945   -0.2669    0.0000 C   0  0  0  0  0  0  0  0  0  0  0  0
    1.0838   -0.0666    0.0000 C   0  0  0  0  0  0  0  0  0  0  0  0
   -0.0510   -1.0209    0.0000 C   0  0  0  0  0  0  0  0  0  0  0  0
    1.7435   -0.5655    0.0000 C   0  0  0  0  0  0  0  0  0  0  0  0
    0.3258   -1.7553    0.0000 C   0  0  0  0  0  0  0  0  0  0  0  0
    1.7671   -1.3901    0.0000 C   0  0  0  0  0  0  0  0  0  0  0  0
    1.1309   -1.9202    0.0000 C   0  0  0  0  0  0  0  0  0  0  0  0
  2  1  1  0
  3  1  1  0
  4  1  1  0
  5  2  2  0
  6  3  2  0
  7  2  1  0
  8  3  1  0
  9  3  1  0
 10  2  1  0
 11  4  1  0
 12 11  1  0
 13 11  1  0
 14 12  1  0
 15 13  1  0
 16 14  1  0
 17 15  1  0
 16 17  1  0
M  END
$$$$
