
     RDKit          2D

 19 20  0  0  0  0  0  0  0  0999 V2000
    2.1552    1.3045    0.0000 C   0  0  0  0  0  0  0  0  0  0  0  0
    2.8697    0.8920    0.0000 C   0  0  0  0  0  0  0  0  0  0  0  0
    2.8697    0.0670    0.0000 C   0  0  0  0  0  0  0  0  0  0  0  0
    3.5842   -0.3455    0.0000 C   0  0  0  0  0  0  0  0  0  0  0  0
    3.5842   -1.1705    0.0000 C   0  0  0  0  0  0  0  0  0  0  0  0
    2.8697   -1.5830    0.0000 C   0  0  0  0  0  0  0  0  0  0  0  0
    2.1552   -1.1705    0.0000 C   0  0  0  0  0  0  0  0  0  0  0  0
    2.1552   -0.3455    0.0000 C   0  0  0  0  0  0  0  0  0  0  0  0
    2.8697   -2.4080    0.0000 O   0  0  0  0  0  0  0  0  0  0  0  0
    3.5842    1.3045    0.0000 C   0  0  0  0  0  0  0  0  0  0  0  0
    4.1145    1.9365    0.0000 C   0  0  0  0  0  0  0  0  0  0  0  0
    4.9269    1.7933    0.0000 C   0  0  0  0  0  0  0  0  0  0  0  0
    5.2091    1.0180    0.0000 C   0  0  0  0  0  0  0  0  0  0  0  0
    4.6788    0.3860    0.0000 C   0  0  0  0  0  0  0  0  0  0  0  0
    3.8663    0.5293    0.0000 C   0  0  0  0  0  0  0  0  0  0  0  0
    3.0539    1.9365    0.0000 O   0  0  0  0  0  0  0  0  0  0  0  0
    1.4407    0.8920    0.0000 N   0  0  0  0  0  0  0  0  0  0  0  0
    0.7263    1.3045    0.0000 C   0  0  0  0  0  0  0  0  0  0  0  0
    1.4407    0.0670    0.0000 C   0  0  0  0  0  0  0  0  0  0  0  0
  1  2  1  0
  2  3  1  0
  3  4  2  0
  4  5  1  0
  5  6  2  0
  6  7  1  0
  7  8  2  0
  3  8  1  0
  6  9  1  0
  2 10  1  0
 10 11  1  0
 11 12  1  0
 12 13  1  0
 13 14  1  0
 14 15  1  0
 10 15  1  0
 10 16  1  0
  1 17  1  0
 17 18  1  0
 17 19  1  0
M  END
$$$$
