
     RDKit          2D

 43 51  0  0  0  0  0  0  0  0999 V2000
   -0.4124    2.5573    0.0000 C   0  0  0  0  0  0  0  0  0  0  0  0
    0.4125    2.5573    0.0000 C   0  0  0  0  0  0  0  0  0  0  0  0
    0.4125    1.1283    0.0000 C   0  0  0  0  0  0  0  0  0  0  0  0
    0.8250    1.8427    0.0000 C   0  0  0  0  0  0  0  0  0  0  0  0
   -0.4124    1.1283    0.0000 C   0  0  0  0  0  0  0  0  0  0  0  0
   -0.8249    1.8427    0.0000 C   0  0  0  0  0  0  0  0  0  0  0  0
    1.7182    0.8507    0.0000 C   0  0  0  0  0  0  0  0  0  0  0  0
    1.6319    1.6712    0.0000 C   0  0  0  0  0  0  0  0  0  0  0  0
    3.0530    1.8207    0.0000 C   0  0  0  0  0  0  0  0  0  0  0  0
    2.2994    2.1562    0.0000 C   0  0  0  0  0  0  0  0  0  0  0  0
    2.4718    0.5153    0.0000 C   0  0  0  0  0  0  0  0  0  0  0  0
    3.1393    1.0002    0.0000 C   0  0  0  0  0  0  0  0  0  0  0  0
   -1.7181    0.8507    0.0000 C   0  0  0  0  0  0  0  0  0  0  0  0
   -1.6319    1.6712    0.0000 C   0  0  0  0  0  0  0  0  0  0  0  0
   -2.2994    2.1562    0.0000 C   0  0  0  0  0  0  0  0  0  0  0  0
   -3.0530    1.8207    0.0000 C   0  0  0  0  0  0  0  0  0  0  0  0
   -3.1393    1.0002    0.0000 C   0  0  0  0  0  0  0  0  0  0  0  0
   -2.4719    0.5153    0.0000 C   0  0  0  0  0  0  0  0  0  0  0  0
   -0.9644    0.5153    0.0000 N   0  0  0  0  0  0  0  0  0  0  0  0
    0.9644    0.5153    0.0000 N   0  0  0  0  0  0  0  0  0  0  0  0
    0.0237   -0.1141    0.0000 O   0  0  0  0  0  0  0  0  0  0  0  0
    0.0237   -1.7642    0.0000 C   0  0  0  0  0  0  0  0  0  0  0  0
    0.7381   -1.3517    0.0000 C   0  0  0  0  0  0  0  0  0  0  0  0
    0.7381   -0.5267    0.0000 C   0  0  0  0  0  0  0  0  0  0  0  0
    0.0237   -2.5892    0.0000 N   0  0  0  0  0  0  0  0  0  0  0  0
   -0.6906   -3.0017    0.0000 C   0  0  0  0  0  0  0  0  0  0  0  0
    0.0000    3.8268    0.0000 N   0  0  0  0  0  0  0  0  0  0  0  0
   -0.6674    3.3419    0.0000 C   0  0  0  0  0  0  0  0  0  0  0  0
    0.6674    3.3419    0.0000 C   0  0  0  0  0  0  0  0  0  0  0  0
    1.4643    3.5554    0.0000 O   0  0  0  0  0  0  0  0  0  0  0  0
   -0.6906   -0.5267    0.0000 C   0  0  0  0  0  0  0  0  0  0  0  0
   -1.5156   -0.5267    0.0000 C   0  0  0  0  0  0  0  0  0  0  0  0
   -0.6906   -1.3517    0.0000 C   0  0  0  0  0  0  0  0  0  0  0  0
   -1.4051   -1.7642    0.0000 O   0  0  0  0  0  0  0  0  0  0  0  0
   -2.1195   -1.3517    0.0000 C   0  0  0  0  0  0  0  0  0  0  0  0
    0.7382   -3.0017    0.0000 C   0  0  0  0  0  0  0  0  0  0  0  0
    0.7382   -3.8268    0.0000 O   0  0  0  0  0  0  0  0  0  0  0  0
    1.4527   -2.5892    0.0000 C   0  0  0  0  0  0  0  0  0  0  0  0
    2.8817   -1.7642    0.0000 C   0  0  0  0  0  0  0  0  0  0  0  0
    2.8817   -2.5892    0.0000 C   0  0  0  0  0  0  0  0  0  0  0  0
    2.1671   -1.3517    0.0000 C   0  0  0  0  0  0  0  0  0  0  0  0
    2.1671   -3.0017    0.0000 C   0  0  0  0  0  0  0  0  0  0  0  0
    1.4527   -1.7642    0.0000 C   0  0  0  0  0  0  0  0  0  0  0  0
  2  4  2  0
  1  6  2  0
  5  3  2  0
 28  1  1  0
  1  2  1  0
  2 29  1  0
 27 28  1  0
 27 29  1  0
  3 20  1  0
  4  3  1  0
  4  8  1  0
 20  7  1  0
 19  5  1  0
  6  5  1  0
  6 14  1  0
 13 19  1  0
  7 11  1  0
  8  7  2  0
 10  8  1  0
  9 10  2  0
  9 12  1  0
 11 12  2  0
 18 13  1  0
 13 14  2  0
 15 14  1  0
 15 16  2  0
 16 17  1  0
 17 18  2  0
 21 31  1  0
 21 24  1  0
 31 33  1  0
 33 22  1  0
 22 23  1  0
 24 23  1  1
 31 19  1  0
 24 20  1  0
 22 25  1  1
 25 26  1  0
 29 30  2  0
 31 32  1  6
 33 34  1  1
 34 35  1  0
 25 36  1  0
 36 37  2  0
 36 38  1  0
 40 39  2  0
 41 39  1  0
 42 40  1  0
 43 41  2  0
 38 42  2  0
 38 43  1  0
M  END
$$$$
