
     RDKit          2D

 27 27  0  0  1  0  0  0  0  0999 V2000
   -0.6162   -5.1022    0.0000 C   0  0  0  0  0  0  0  0  0  0  0  0
   -1.2107   -5.6741    0.0000 C   0  0  0  0  0  0  0  0  0  0  0  0
   -1.0125   -6.4751    0.0000 C   0  0  0  0  0  0  0  0  0  0  0  0
   -0.2199   -6.7039    0.0000 C   0  0  0  0  0  0  0  0  0  0  0  0
    0.3745   -6.1319    0.0000 C   0  0  0  0  0  0  0  0  0  0  0  0
    1.1671   -6.3606    0.0000 C   0  0  0  0  0  0  0  0  0  0  0  0
    1.7616   -5.7886    0.0000 C   0  0  0  0  0  0  0  0  0  0  0  0
    2.5541   -6.0174    0.0000 C   0  0  0  0  0  0  0  0  0  0  0  0
    2.7524   -6.8183    0.0000 O   0  0  0  0  0  0  0  0  0  0  0  0
    3.1486   -5.4454    0.0000 C   0  0  0  0  0  0  0  0  0  0  0  0
    3.9412   -5.6741    0.0000 C   0  0  0  0  0  0  0  0  0  0  0  0
    4.5358   -5.1022    0.0000 C   0  0  0  0  0  0  0  0  0  0  0  0
    4.4225   -4.2850    0.0000 C   0  0  0  0  0  0  0  0  0  0  0  0
    3.6947   -3.8964    0.0000 O   0  0  0  0  0  0  0  0  0  0  0  0
    5.1646   -3.9247    0.0000 C   0  0  0  0  0  0  0  0  0  0  0  0
    5.7366   -4.5192    0.0000 C   0  0  0  0  0  0  0  0  0  0  0  0
    6.5538   -4.4058    0.0000 O   0  0  0  0  0  0  0  0  0  0  0  0
    5.3480   -5.2469    0.0000 C   0  0  0  0  0  0  0  0  0  0  0  0
    5.7083   -5.9890    0.0000 C   0  0  0  0  0  0  0  0  0  0  0  0
    5.2458   -6.6722    0.0000 C   0  0  0  0  0  0  0  0  0  0  0  0
    5.6061   -7.4143    0.0000 C   0  0  0  0  0  0  0  0  0  0  0  0
    6.4290   -7.4733    0.0000 C   0  0  0  0  0  0  0  0  0  0  0  0
    6.7894   -8.2155    0.0000 C   0  0  0  0  0  0  0  0  0  0  0  0
    7.6123   -8.2745    0.0000 C   0  0  0  0  0  0  0  0  0  0  0  0
    7.9726   -9.0167    0.0000 C   0  0  0  0  0  0  0  0  0  0  0  0
    7.5100   -9.6998    0.0000 O   0  0  0  0  0  0  0  0  0  0  0  0
    8.7955   -9.0757    0.0000 O   0  0  0  0  0  0  0  0  0  0  0  0
  1  2  1  0
  2  3  1  0
  3  4  1  0
  4  5  1  0
  5  6  1  0
  6  7  1  0
  7  8  1  0
  8  9  2  0
  8 10  1  0
 10 11  1  0
 12 11  1  1
 12 13  1  0
 13 14  1  6
 13 15  1  0
 15 16  1  0
 16 17  1  6
 16 18  1  0
 12 18  1  0
 18 19  1  6
 19 20  1  0
 20 21  2  0
 21 22  1  0
 22 23  1  0
 23 24  1  0
 24 25  1  0
 25 26  2  0
 25 27  1  0
M  END
$$$$
