
     RDKit          2D

 23 25  0  0  0  0  0  0  0  0999 V2000
   -0.7642   -0.2490    0.0000 C   0  0  0  0  0  0  0  0  0  0  0  0
    2.0798    0.5779    0.0000 N   0  0  0  0  0  0  0  0  0  0  0  0
    0.6577   -0.2490    0.0000 N   0  0  0  0  0  0  0  0  0  0  0  0
   -0.0531   -0.6650    0.0000 C   0  0  0  0  0  0  0  0  0  0  0  0
   -1.4752   -0.6698    0.0000 C   0  0  0  0  0  0  0  0  0  0  0  0
   -1.1801    0.4618    0.0000 C   0  0  0  0  0  0  0  0  0  0  0  0
    1.3591    0.9842    0.0000 C   0  0  0  0  0  0  0  0  0  0  0  0
    2.0701   -0.2490    0.0000 C   0  0  0  0  0  0  0  0  0  0  0  0
   -0.3676    0.4618    0.0000 O   0  0  0  0  0  0  0  0  0  0  0  0
    0.6481    0.5683    0.0000 C   0  0  0  0  0  0  0  0  0  0  0  0
    1.3687   -0.6554    0.0000 C   0  0  0  0  0  0  0  0  0  0  0  0
    2.8972    0.5779    0.0000 C   0  0  0  0  0  0  0  0  0  0  0  0
    2.4764    1.2889    0.0000 C   0  0  0  0  0  0  0  0  0  0  0  0
   -2.1862   -0.2587    0.0000 C   0  0  0  0  0  0  0  0  0  0  0  0
   -1.4752   -1.4970    0.0000 C   0  0  0  0  0  0  0  0  0  0  0  0
   -0.7642    1.1874    0.0000 C   0  0  0  0  0  0  0  0  0  0  0  0
   -2.0121    0.4618    0.0000 C   0  0  0  0  0  0  0  0  0  0  0  0
   -2.1862   -1.9032    0.0000 C   0  0  0  0  0  0  0  0  0  0  0  0
   -2.8972   -0.6698    0.0000 C   0  0  0  0  0  0  0  0  0  0  0  0
   -1.1801    1.9032    0.0000 C   0  0  0  0  0  0  0  0  0  0  0  0
   -2.4280    1.1874    0.0000 C   0  0  0  0  0  0  0  0  0  0  0  0
   -2.0121    1.9032    0.0000 C   0  0  0  0  0  0  0  0  0  0  0  0
   -2.8972   -1.4970    0.0000 C   0  0  0  0  0  0  0  0  0  0  0  0
  2  8  1  0
  3  4  1  0
  4  1  1  0
  5  1  1  0
  6  1  1  0
  7 10  1  0
  8 11  1  0
  9  1  1  0
 10  3  1  0
 11  3  1  0
 12  2  1  0
 13  2  1  0
 14  5  2  0
 15  5  1  0
 16  6  1  0
 17  6  1  0
 18 15  2  0
 19 14  1  0
 20 16  1  0
 21 17  1  0
 22 21  1  0
 23 18  1  0
 20 22  1  0
 19 23  2  0
  7  2  1  0
M  CHG  1   2   1
M  END
$$$$
