
     RDKit          2D

 43 47  0  0  0  0  0  0  0  0999 V2000
    0.8772   -0.3633    0.0000 C   0  0  0  0  0  0  0  0  0  0  0  0
    0.8772   -1.1884    0.0000 N   0  0  0  0  0  0  0  0  0  0  0  0
    1.5787   -1.6011    0.0000 C   0  0  0  0  0  0  0  0  0  0  0  0
    2.2800   -1.1884    0.0000 C   0  0  0  0  0  0  0  0  0  0  0  0
    2.2800   -0.3633    0.0000 C   0  0  0  0  0  0  0  0  0  0  0  0
    1.5787    0.0492    0.0000 S   0  0  0  0  0  0  0  0  0  0  0  0
    0.0519   -0.3633    0.0000 C   0  0  0  0  0  0  0  0  0  0  0  0
    0.0519   -1.1884    0.0000 C   0  0  0  0  0  0  0  0  0  0  0  0
   -0.6906    0.0492    0.0000 N   0  0  0  0  0  0  0  0  0  0  0  0
   -1.3921   -0.3633    0.0000 C   0  0  0  0  0  0  0  0  0  0  0  0
   -1.3921   -1.1884    0.0000 O   0  0  0  0  0  0  0  0  0  0  0  0
   -0.6906   -1.6011    0.0000 O   0  0  0  0  0  0  0  0  0  0  0  0
   -2.0935    0.0492    0.0000 C   0  0  0  0  0  0  0  0  0  0  0  0
    3.0227   -1.6011    0.0000 S   0  0  0  0  0  0  0  0  0  0  0  0
   -2.8362   -0.3633    0.0000 C   0  0  0  0  0  0  0  0  0  0  0  0
   -3.4551    0.1318    0.0000 N   0  0  0  0  0  0  0  0  0  0  0  0
   -4.1565   -0.3220    0.0000 S   0  0  0  0  0  0  0  0  0  0  0  0
   -3.9089   -1.1472    0.0000 C   0  0  0  0  0  0  0  0  0  0  0  0
   -3.0838   -1.1472    0.0000 N   0  0  0  0  0  0  0  0  0  0  0  0
   -2.0935    0.8745    0.0000 N   0  0  0  0  0  0  0  0  0  0  0  0
    1.5787   -2.4263    0.0000 C   0  0  0  0  0  0  0  0  0  0  0  0
    2.2800   -2.8389    0.0000 O   0  0  0  0  0  0  0  0  0  0  0  0
    0.8359   -2.8389    0.0000 O   0  0  0  0  0  0  0  0  0  0  0  0
   -4.4042   -1.8073    0.0000 N   0  0  0  0  0  0  0  0  0  0  0  0
   -1.3921    1.2871    0.0000 O   0  0  0  0  0  0  0  0  0  0  0  0
   -0.6741    0.8803    0.0000 C   0  0  0  0  0  0  0  0  0  0  0  0
    0.0222    1.2900    0.0000 C   0  0  0  0  0  0  0  0  0  0  0  0
   -5.2293   -1.8073    0.0000 P   0  0  0  0  0  0  0  0  0  0  0  0
   -6.0546   -1.8073    0.0000 O   0  0  0  0  0  0  0  0  0  0  0  0
   -5.2293   -0.9821    0.0000 O   0  0  0  0  0  0  0  0  0  0  0  0
   -5.2293   -2.6325    0.0000 O   0  0  0  0  0  0  0  0  0  0  0  0
    3.7276   -1.1785    0.0000 C   0  0  0  0  0  0  0  0  0  0  0  0
    4.4811   -1.4993    0.0000 S   0  0  0  0  0  0  0  0  0  0  0  0
    5.0190   -0.8817    0.0000 C   0  0  0  0  0  0  0  0  0  0  0  0
    4.5979   -0.1794    0.0000 C   0  0  0  0  0  0  0  0  0  0  0  0
    3.7998   -0.3629    0.0000 N   0  0  0  0  0  0  0  0  0  0  0  0
    4.9132    0.5614    0.0000 C   0  0  0  0  0  0  0  0  0  0  0  0
    5.7315    0.6611    0.0000 C   0  0  0  0  0  0  0  0  0  0  0  0
    6.0546    1.4203    0.0000 C   0  0  0  0  0  0  0  0  0  0  0  0
    5.5586    2.0795    0.0000 N   0  0  0  0  0  0  0  0  0  0  0  0
    4.7403    1.9798    0.0000 C   0  0  0  0  0  0  0  0  0  0  0  0
    4.4174    1.2207    0.0000 C   0  0  0  0  0  0  0  0  0  0  0  0
    5.8817    2.8389    0.0000 C   0  0  0  0  0  0  0  0  0  0  0  0
  1  2  1  0
  2  3  1  0
  3  4  2  0
  4  5  1  0
  5  6  1  0
  1  6  1  1
  1  7  1  0
  7  8  1  0
  2  8  1  0
  7  9  1  1
  9 10  1  0
 10 11  2  0
  8 12  2  0
 10 13  1  0
  4 14  1  0
 13 15  1  0
 15 16  2  0
 16 17  1  0
 17 18  1  0
 18 19  2  0
 15 19  1  0
 13 20  2  0
  3 21  1  0
 21 22  1  0
 21 23  2  0
 18 24  1  0
 20 25  1  0
 25 26  1  0
 26 27  1  0
 24 28  1  0
 28 29  1  0
 28 30  1  0
 28 31  2  0
 14 32  1  0
 32 33  1  0
 33 34  1  0
 34 35  2  0
 35 36  1  0
 32 36  2  0
 35 37  1  0
 37 38  2  0
 38 39  1  0
 39 40  2  0
 40 41  1  0
 41 42  2  0
 37 42  1  0
 40 43  1  0
M  CHG  2  22  -1  40   1
M  END
$$$$
