
     RDKit          2D

 22 23  0  0  0  0  0  0  0  0999 V2000
    3.9317    0.6250    0.0000 C   0  0  0  0  0  0  0  0  0  0  0  0
    2.5023    0.6250    0.0000 N   0  0  0  0  0  0  0  0  0  0  0  0
    3.9317   -0.2000    0.0000 O   0  0  0  0  0  0  0  0  0  0  0  0
    3.2150    1.0376    0.0000 C   0  0  0  0  0  0  0  0  0  0  0  0
    4.6443    1.0418    0.0000 N   0  0  0  0  0  0  0  0  0  0  0  0
   -1.0730   -0.6250    0.0000 O   0  0  0  0  0  0  0  0  0  0  0  0
    1.7814    1.0293    0.0000 C   0  0  0  0  0  0  0  0  0  0  0  0
   -0.3562   -0.2125    0.0000 C   0  0  0  0  0  0  0  0  0  0  0  0
    1.0688    0.6125    0.0000 C   0  0  0  0  0  0  0  0  0  0  0  0
   -3.2192   -0.2125    0.0000 C   0  0  0  0  0  0  0  0  0  0  0  0
   -3.9317   -0.6250    0.0000 C   0  0  0  0  0  0  0  0  0  0  0  0
   -1.7856   -0.2125    0.0000 C   0  0  0  0  0  0  0  0  0  0  0  0
   -2.5065   -0.6250    0.0000 C   0  0  0  0  0  0  0  0  0  0  0  0
   -4.6443   -0.2083    0.0000 F   0  0  0  0  0  0  0  0  0  0  0  0
   -0.3562    0.6125    0.0000 C   0  0  0  0  0  0  0  0  0  0  0  0
    0.3562   -0.6250    0.0000 C   0  0  0  0  0  0  0  0  0  0  0  0
    0.3562    1.0251    0.0000 C   0  0  0  0  0  0  0  0  0  0  0  0
    1.0688   -0.2125    0.0000 C   0  0  0  0  0  0  0  0  0  0  0  0
   -3.2109   -1.8627    0.0000 C   0  0  0  0  0  0  0  0  0  0  0  0
   -3.9317   -1.4502    0.0000 C   0  0  0  0  0  0  0  0  0  0  0  0
   -2.4983   -1.4502    0.0000 C   0  0  0  0  0  0  0  0  0  0  0  0
    3.2066    1.8627    0.0000 C   0  0  0  0  0  0  0  0  0  0  0  0
  2  4  1  0
  3  1  2  0
  4  1  1  0
  5  1  1  0
  6  8  1  0
  7  2  1  0
  8 16  1  0
  9  7  1  0
 10 13  2  0
 11 10  1  0
 12  6  1  0
 13 12  1  0
 14 11  1  0
 15 17  1  0
 16 18  2  0
 17  9  2  0
 18  9  1  0
 19 21  2  0
 20 19  1  0
 21 13  1  0
  4 22  1  1
  8 15  2  0
 20 11  2  0
M  END
$$$$
