
     RDKit          2D

 48 49  0  0  0  0  0  0  0  0999 V2000
    8.4772  -13.1404    0.0000 C   0  0  0  0  0  0  0  0  0  0  0  0
    8.4772  -12.3150    0.0000 C   0  0  0  0  0  0  0  0  0  0  0  0
    7.7636  -13.5549    0.0000 C   0  0  0  0  0  0  0  0  0  0  0  0
    9.1943  -13.5477    0.0000 N   0  0  0  0  0  0  0  0  0  0  0  0
    9.1943  -11.9042    0.0000 N   0  0  0  0  0  0  0  0  0  0  0  0
    7.7636  -11.9078    0.0000 C   0  0  0  0  0  0  0  0  0  0  0  0
    7.7636  -14.3767    0.0000 C   0  0  0  0  0  0  0  0  0  0  0  0
    9.1943  -14.3731    0.0000 C   0  0  0  0  0  0  0  0  0  0  0  0
    9.9044  -12.3115    0.0000 C   0  0  0  0  0  0  0  0  0  0  0  0
    7.0499  -12.3187    0.0000 N   0  0  0  0  0  0  0  0  0  0  0  0
    7.7239  -11.3131    0.0000 O   0  0  0  0  0  0  0  0  0  0  0  0
    8.4772  -14.7875    0.0000 N   0  0  0  0  0  0  0  0  0  0  0  0
    7.0499  -14.7912    0.0000 O   0  0  0  0  0  0  0  0  0  0  0  0
    9.9080  -14.7875    0.0000 N   0  0  0  0  0  0  0  0  0  0  0  0
   10.6216  -11.9006    0.0000 C   0  0  0  0  0  0  0  0  0  0  0  0
    9.9009  -13.1369    0.0000 O   0  0  0  0  0  0  0  0  0  0  0  0
    6.3399  -11.9078    0.0000 C   0  0  0  0  0  0  0  0  0  0  0  0
   10.6216  -11.0788    0.0000 N   0  0  0  0  0  0  0  0  0  0  0  0
   11.3316  -12.3079    0.0000 C   0  0  0  0  0  0  0  0  0  0  0  0
    6.3399  -11.0896    0.0000 C   0  0  0  0  0  0  0  0  0  0  0  0
    9.9044  -10.6679    0.0000 C   0  0  0  0  0  0  0  0  0  0  0  0
   12.0489  -11.8970    0.0000 N   0  0  0  0  0  0  0  0  0  0  0  0
    7.0607  -10.6788    0.0000 C   0  0  0  0  0  0  0  0  0  0  0  0
    5.6335  -10.6860    0.0000 N   0  0  0  0  0  0  0  0  0  0  0  0
    9.9044   -9.8534    0.0000 C   0  0  0  0  0  0  0  0  0  0  0  0
    9.1872  -11.0788    0.0000 O   0  0  0  0  0  0  0  0  0  0  0  0
   12.7590  -12.3042    0.0000 C   0  0  0  0  0  0  0  0  0  0  0  0
    7.0571   -9.8571    0.0000 N   0  0  0  0  0  0  0  0  0  0  0  0
    7.6086  -10.8626    0.0000 O   0  0  0  0  0  0  0  0  0  0  0  0
    4.9199  -11.0969    0.0000 C   0  0  0  0  0  0  0  0  0  0  0  0
    9.1943   -9.4390    0.0000 N   0  0  0  0  0  0  0  0  0  0  0  0
   10.6216   -9.4353    0.0000 C   0  0  0  0  0  0  0  0  0  0  0  0
   13.4762  -11.8933    0.0000 N   0  0  0  0  0  0  0  0  0  0  0  0
   12.7553  -13.1296    0.0000 O   0  0  0  0  0  0  0  0  0  0  0  0
    7.7636   -9.4426    0.0000 C   0  0  0  0  0  0  0  0  0  0  0  0
    4.2062  -10.6860    0.0000 C   0  0  0  0  0  0  0  0  0  0  0  0
    4.9234  -11.9222    0.0000 O   0  0  0  0  0  0  0  0  0  0  0  0
    8.4772   -9.8534    0.0000 C   0  0  0  0  0  0  0  0  0  0  0  0
   11.3316   -9.8462    0.0000 O   0  0  0  0  0  0  0  0  0  0  0  0
    7.7599   -8.6136    0.0000 C   0  0  0  0  0  0  0  0  0  0  0  0
    3.4925  -11.1004    0.0000 C   0  0  0  0  0  0  0  0  0  0  0  0
    8.4736  -10.6788    0.0000 O   0  0  0  0  0  0  0  0  0  0  0  0
    8.4736   -8.1954    0.0000 O   0  0  0  0  0  0  0  0  0  0  0  0
    2.7789  -10.6896    0.0000 C   0  0  0  0  0  0  0  0  0  0  0  0
    3.4890  -11.9259    0.0000 N   0  0  0  0  0  0  0  0  0  0  0  0
    2.0653  -11.1041    0.0000 C   0  0  0  0  0  0  0  0  0  0  0  0
    1.3625  -10.6968    0.0000 C   0  0  0  0  0  0  0  0  0  0  0  0
    0.6453  -11.1076    0.0000 N   0  0  0  0  0  0  0  0  0  0  0  0
  1  2  1  0
  1  3  1  6
  1  4  1  0
  2  5  1  1
  2  6  1  0
  3  7  1  0
  4  8  1  0
  5  9  1  0
  6 10  1  0
  6 11  2  0
  7 12  1  0
  7 13  1  1
  8 14  2  3
  9 15  1  0
  9 16  2  0
 10 17  1  0
 15 18  1  0
 15 19  2  0
 17 20  1  0
 18 21  1  0
 19 22  1  0
 20 23  1  0
 20 24  1  6
 21 25  1  0
 21 26  2  0
 22 27  1  0
 23 28  1  0
 23 29  2  0
 24 30  1  0
 25 31  1  0
 25 32  1  1
 27 33  1  0
 27 34  2  0
 28 35  1  0
 30 36  1  0
 30 37  2  0
 31 38  1  0
 32 39  1  0
 35 40  1  1
 36 41  1  0
 38 42  2  0
 40 43  1  0
 41 44  1  0
 41 45  1  1
 44 46  1  0
 46 47  1  0
 47 48  1  0
  8 12  1  0
 35 38  1  0
M  END
$$$$
