D27
     RDKit          2D

 24 25  0  0  0  0  0  0  0  0999 V2000
   71.7677    7.6818    0.0000 C   0  0  0  0  0  0  0  0  0  0  0  0
   71.0533    7.2693    0.0000 C   0  0  0  0  0  0  0  0  0  0  0  0
   71.7677    8.5068    0.0000 C   0  0  0  0  0  0  0  0  0  0  0  0
   70.3388    7.6818    0.0000 N   0  0  0  0  0  0  0  0  0  0  0  0
   69.6243    7.2693    0.0000 C   0  0  0  0  0  0  0  0  0  0  0  0
   68.9099    7.6818    0.0000 C   0  0  0  0  0  0  0  0  0  0  0  0
   66.0520    7.6818    0.0000 C   0  0  0  0  0  0  0  0  0  0  0  0
   68.1954    7.2693    0.0000 C   0  0  0  0  0  0  0  0  0  0  0  0
   66.0520    8.5068    0.0000 C   0  0  0  0  0  0  0  0  0  0  0  0
   66.7664    7.2693    0.0000 C   0  0  0  0  0  0  0  0  0  0  0  0
   71.0533    8.9193    0.0000 O   0  0  0  0  0  0  0  0  0  0  0  0
   69.6243    6.4443    0.0000 O   0  0  0  0  0  0  0  0  0  0  0  0
   67.4809    7.6818    0.0000 C   0  0  0  0  0  0  0  0  0  0  0  0
   66.7664    8.9193    0.0000 C   0  0  0  0  0  0  0  0  0  0  0  0
   72.4822    8.9193    0.0000 O   0  0  0  0  0  0  0  0  0  0  0  0
   67.4809    8.5068    0.0000 C   0  0  0  0  0  0  0  0  0  0  0  0
   65.3375    7.2693    0.0000 O   0  0  0  0  0  0  0  0  0  0  0  0
   72.4822    7.2693    0.0000 C   0  0  0  0  0  0  0  0  0  0  0  0
   65.3375    8.9193    0.0000 O   0  0  0  0  0  0  0  0  0  0  0  0
   71.0533    6.4443    0.0000 C   0  0  0  0  0  0  0  0  0  0  0  0
   65.3375    6.4443    0.0000 C   0  0  0  0  0  0  0  0  0  0  0  0
   64.6230    8.5068    0.0000 C   0  0  0  0  0  0  0  0  0  0  0  0
   72.4822    6.4443    0.0000 C   0  0  0  0  0  0  0  0  0  0  0  0
   71.7677    6.0318    0.0000 C   0  0  0  0  0  0  0  0  0  0  0  0
  1  2  2  0
  1  3  1  0
  1 18  1  0
  2  4  1  0
  2 20  1  0
  3 11  2  0
  3 15  1  0
  4  5  1  0
  5  6  1  0
  5 12  2  0
  6  8  2  0
  7  9  2  0
  7 10  1  0
  7 17  1  0
  8 13  1  0
  9 14  1  0
  9 19  1  0
 10 13  2  0
 13 16  1  0
 14 16  2  0
 17 21  1  0
 18 23  2  0
 19 22  1  0
 20 24  2  0
 23 24  1  0
M  END
$$$$
