 
     RDKit          2D

 39 41  0  0  0  0  0  0  0  0999 V2000
   13.2180  -12.2559    0.0000 O   0  0  0  0  0  0  0  0  0  0  0  0
   13.9291  -11.8377    0.0000 C   0  0  0  0  0  0  0  0  0  0  0  0
   14.6820  -12.2559    0.0000 C   0  0  0  0  0  0  0  0  0  0  0  0
   15.3931  -11.8377    0.0000 C   0  0  0  0  0  0  0  0  0  0  0  0
   16.1042  -12.2559    0.0000 O   0  0  0  0  0  0  0  0  0  0  0  0
   14.6820  -13.0925    0.0000 O   0  0  0  0  0  0  0  0  0  0  0  0
   16.8572  -11.8377    0.0000 C   0  0  0  0  0  0  0  0  0  0  0  0
   17.5682  -12.2559    0.0000 C   0  0  0  0  0  0  0  0  0  0  0  0
   16.8572  -11.0011    0.0000 O   0  0  0  0  0  0  0  0  0  0  0  0
   18.2793  -11.8377    0.0000 C   0  0  0  0  0  0  0  0  0  0  0  0
   18.9904  -12.2559    0.0000 C   0  0  0  0  0  0  0  0  0  0  0  0
   19.7015  -11.8377    0.0000 C   0  0  0  0  0  0  0  0  0  0  0  0
   20.4126  -12.2559    0.0000 C   0  0  0  0  0  0  0  0  0  0  0  0
   21.1656  -11.8377    0.0000 C   0  0  0  0  0  0  0  0  0  0  0  0
   21.1656  -10.9592    0.0000 C   0  0  0  0  0  0  0  0  0  0  0  0
   20.4126  -10.5828    0.0000 C   0  0  0  0  0  0  0  0  0  0  0  0
   19.7015  -11.0011    0.0000 C   0  0  0  0  0  0  0  0  0  0  0  0
   12.4651  -11.8377    0.0000 C   0  0  0  0  0  0  0  0  0  0  0  0
   12.4651  -11.0011    0.0000 O   0  0  0  0  0  0  0  0  0  0  0  0
   11.7540  -12.2559    0.0000 C   0  0  0  0  0  0  0  0  0  0  0  0
   11.0429  -11.8377    0.0000 C   0  0  0  0  0  0  0  0  0  0  0  0
   10.3318  -12.2559    0.0000 C   0  0  0  0  0  0  0  0  0  0  0  0
    9.6207  -11.8377    0.0000 C   0  0  0  0  0  0  0  0  0  0  0  0
    9.6207  -11.0011    0.0000 C   0  0  0  0  0  0  0  0  0  0  0  0
    8.9096  -10.5409    0.0000 C   0  0  0  0  0  0  0  0  0  0  0  0
    8.1567  -11.0011    0.0000 C   0  0  0  0  0  0  0  0  0  0  0  0
    8.1567  -11.8377    0.0000 C   0  0  0  0  0  0  0  0  0  0  0  0
    8.9096  -12.2559    0.0000 C   0  0  0  0  0  0  0  0  0  0  0  0
   15.3931  -13.5108    0.0000 C   0  0  0  0  0  0  0  0  0  0  0  0
   16.1461  -13.0925    0.0000 C   0  0  0  0  0  0  0  0  0  0  0  0
   15.3931  -14.3474    0.0000 O   0  0  0  0  0  0  0  0  0  0  0  0
   16.8572  -13.5108    0.0000 C   0  0  0  0  0  0  0  0  0  0  0  0
   17.5682  -13.0925    0.0000 C   0  0  0  0  0  0  0  0  0  0  0  0
   18.2793  -13.5108    0.0000 C   0  0  0  0  0  0  0  0  0  0  0  0
   18.2793  -14.3474    0.0000 C   0  0  0  0  0  0  0  0  0  0  0  0
   18.9904  -14.7657    0.0000 C   0  0  0  0  0  0  0  0  0  0  0  0
   19.7434  -14.3474    0.0000 C   0  0  0  0  0  0  0  0  0  0  0  0
   19.7434  -13.5108    0.0000 C   0  0  0  0  0  0  0  0  0  0  0  0
   18.9904  -13.0925    0.0000 C   0  0  0  0  0  0  0  0  0  0  0  0
  1  2  1  0
  2  3  1  0
  3  4  1  0
  4  5  1  0
  3  6  1  0
  5  7  1  0
  7  8  1  0
  7  9  2  0
  8 10  1  0
 10 11  1  0
 11 12  1  0
 12 13  2  0
 13 14  1  0
 14 15  2  0
 15 16  1  0
 16 17  2  0
 12 17  1  0
  1 18  1  0
 18 19  2  0
 18 20  1  0
 20 21  1  0
 21 22  1  0
 22 23  1  0
 23 24  2  0
 24 25  1  0
 25 26  2  0
 26 27  1  0
 27 28  2  0
 23 28  1  0
  6 29  1  0
 29 30  1  0
 29 31  2  0
 30 32  1  0
 32 33  1  0
 33 34  1  0
 34 35  2  0
 35 36  1  0
 36 37  2  0
 37 38  1  0
 38 39  2  0
 34 39  1  0
M  END
$$$$
