
     RDKit          2D

 23 23  0  0  0  0  0  0  0  0999 V2000
   -1.9136   -2.2665    0.0000 C   0  0  0  0  0  0  0  0  0  0  0  0
   -1.1991   -1.8540    0.0000 C   0  0  0  0  0  0  0  0  0  0  0  0
   -1.1991   -1.0290    0.0000 C   0  0  0  0  0  0  0  0  0  0  0  0
   -1.9136   -0.6165    0.0000 C   0  0  0  0  0  0  0  0  0  0  0  0
   -2.6280   -1.0290    0.0000 C   0  0  0  0  0  0  0  0  0  0  0  0
   -2.6280   -1.8540    0.0000 C   0  0  0  0  0  0  0  0  0  0  0  0
   -2.4968   -0.0331    0.0000 C   0  0  0  0  0  0  0  0  0  0  0  0
   -1.3302   -0.0331    0.0000 C   0  0  0  0  0  0  0  0  0  0  0  0
   -0.5333   -0.2467    0.0000 N   0  0  0  0  0  0  0  0  0  0  0  0
    0.0500    0.3366    0.0000 C   0  0  0  0  0  0  0  0  0  0  0  0
    0.8468    0.1231    0.0000 O   0  0  0  0  0  0  0  0  0  0  0  0
   -0.1635    1.1335    0.0000 O   0  0  0  0  0  0  0  0  0  0  0  0
    1.2593    0.8375    0.0000 C   0  0  0  0  0  0  0  0  0  0  0  0
    2.0843    0.8375    0.0000 O   0  0  0  0  0  0  0  0  0  0  0  0
    0.8468    1.5520    0.0000 C   0  0  0  0  0  0  0  0  0  0  0  0
    2.4968    1.5520    0.0000 C   0  0  0  0  0  0  0  0  0  0  0  0
    3.3219    1.5520    0.0000 C   0  0  0  0  0  0  0  0  0  0  0  0
    2.0843    2.2665    0.0000 O   0  0  0  0  0  0  0  0  0  0  0  0
    3.7343    2.2665    0.0000 C   0  0  0  0  0  0  0  0  0  0  0  0
    3.7343    0.8375    0.0000 C   0  0  0  0  0  0  0  0  0  0  0  0
   -3.3219   -0.0331    0.0000 C   0  0  0  0  0  0  0  0  0  0  0  0
   -3.7344    0.6812    0.0000 O   0  0  0  0  0  0  0  0  0  0  0  0
   -3.7344   -0.7476    0.0000 O   0  0  0  0  0  0  0  0  0  0  0  0
  1  2  1  0
  2  3  1  0
  3  4  1  0
  4  5  1  0
  5  6  1  0
  6  1  1  0
  4  7  1  0
  4  8  1  0
  8  9  1  0
  9 10  1  0
 10 11  1  0
 10 12  2  0
 11 13  1  0
 13 14  1  0
 13 15  1  0
 14 16  1  0
 16 17  1  0
 16 18  2  0
 17 19  1  0
 17 20  1  0
  7 21  1  0
 21 22  1  0
 21 23  2  0
M  END
$$$$
