 
     RDKit          2D

 34 37  0  0  1  0  0  0  0  0999 V2000
   11.0134  -10.3587    0.0000 C   0  0  0  0  0  0  0  0  0  0  0  0
   11.0134  -11.1952    0.0000 N   0  0  0  0  0  0  0  0  0  0  0  0
   11.7663  -11.6135    0.0000 C   0  0  0  0  0  0  0  0  0  0  0  0
   12.4774  -11.1952    0.0000 C   0  0  0  0  0  0  0  0  0  0  0  0
   12.4774  -10.3587    0.0000 C   0  0  0  0  0  0  0  0  0  0  0  0
   11.7663   -9.9404    0.0000 N   0  0  0  0  0  0  0  0  0  0  0  0
   13.1885  -11.6135    0.0000 C   0  0  0  0  0  0  0  0  0  0  0  0
   13.8995  -11.1952    0.0000 C   0  0  0  0  0  0  0  0  0  0  0  0
   13.8995  -10.3587    0.0000 C   0  0  0  0  0  0  0  0  0  0  0  0
   13.1885   -9.9404    0.0000 C   0  0  0  0  0  0  0  0  0  0  0  0
   11.7663  -12.4500    0.0000 N   0  0  0  0  0  0  0  0  0  0  0  0
   14.6524  -11.8226    0.0000 N   0  0  0  0  0  0  0  0  0  0  0  0
   15.3635  -11.4043    0.0000 C   0  0  0  0  0  0  0  0  0  0  0  0
   16.0745  -11.8226    0.0000 C   0  0  0  0  0  0  0  0  0  0  0  0
   16.8274  -11.4043    0.0000 C   0  0  0  0  0  0  0  0  0  0  0  0
   12.4774  -12.8683    0.0000 C   0  0  0  0  0  0  0  0  0  0  0  0
   12.4774  -13.6630    0.0000 C   0  0  0  0  0  0  0  0  0  0  0  0
   13.1885  -14.0813    0.0000 C   0  0  0  0  0  0  0  0  0  0  0  0
   13.8995  -13.6630    0.0000 C   0  0  0  0  0  0  0  0  0  0  0  0
   13.8995  -12.8683    0.0000 C   0  0  0  0  0  0  0  0  0  0  0  0
   13.1885  -12.4500    0.0000 C   0  0  0  0  0  0  0  0  0  0  0  0
   14.6524  -14.0813    0.0000 F   0  0  0  0  0  0  0  0  0  0  0  0
   13.1885  -14.9597    0.0000 Cl  0  0  0  0  0  0  0  0  0  0  0  0
   15.3635  -10.5678    0.0000 O   0  0  0  0  0  0  0  0  0  0  0  0
   17.5449  -11.8345    0.0000 C   0  0  0  0  0  0  0  0  0  0  0  0
   18.2762  -11.4283    0.0000 N   0  0  0  0  0  0  0  0  0  0  0  0
   19.0128  -11.8696    0.0000 C   0  0  0  0  0  0  0  0  0  0  0  0
   18.2900  -10.6097    0.0000 C   0  0  0  0  0  0  0  0  0  0  0  0
   14.4910   -9.7672    0.0000 O   0  0  0  0  0  0  0  0  0  0  0  0
   15.3276   -9.7672    0.0000 C   0  0  0  0  0  0  0  0  0  0  0  0
   15.8201  -10.4449    0.0000 C   0  0  0  0  0  0  0  0  0  0  0  0
   16.6169  -10.1860    0.0000 C   0  0  0  0  0  0  0  0  0  0  0  0
   16.6169   -9.3482    0.0000 O   0  0  0  0  0  0  0  0  0  0  0  0
   15.8201   -9.0893    0.0000 C   0  0  0  0  0  0  0  0  0  0  0  0
  1  2  2  0
  2  3  1  0
  3  4  2  0
  4  5  1  0
  5  6  2  0
  1  6  1  0
  4  7  1  0
  7  8  2  0
  8  9  1  0
  9 10  2  0
  5 10  1  0
  3 11  1  0
  8 12  1  0
 12 13  1  0
 13 14  1  0
 14 15  2  0
 11 16  1  0
 16 17  2  0
 17 18  1  0
 18 19  2  0
 19 20  1  0
 20 21  2  0
 16 21  1  0
 19 22  1  0
 18 23  1  0
 13 24  2  0
 15 25  1  0
 25 26  1  0
 26 27  1  0
 26 28  1  0
  9 29  1  0
 30 29  1  6
 30 31  1  0
 31 32  1  0
 32 33  1  0
 33 34  1  0
 30 34  1  0
M  END
$$$$
