
     RDKit          2D

 27 30  0  0  0  0  0  0  0  0999 V2000
   -1.3626    2.0416    0.0000 C   0  0  0  0  0  0  0  0  0  0  0  0
    2.6232    0.6018    0.0000 C   0  0  0  0  0  0  0  0  0  0  0  0
    0.1073    0.1997    0.0000 C   0  0  0  0  0  0  0  0  0  0  0  0
    4.2474    0.8922    0.0000 C   0  0  0  0  0  0  0  0  0  0  0  0
    3.4353    0.7470    0.0000 C   0  0  0  0  0  0  0  0  0  0  0  0
    0.0961    2.2243    0.0000 C   0  0  0  0  0  0  0  0  0  0  0  0
    3.9959    2.2988    0.0000 C   0  0  0  0  0  0  0  0  0  0  0  0
    1.8399    2.6391    0.0000 C   0  0  0  0  0  0  0  0  0  0  0  0
    0.9990    0.3113    0.0000 C   0  0  0  0  0  0  0  0  0  0  0  0
   -1.6809    0.4304    0.0000 C   0  0  0  0  0  0  0  0  0  0  0  0
   -0.5866    1.7613    0.0000 C   0  0  0  0  0  0  0  0  0  0  0  0
    4.5277    1.6681    0.0000 C   0  0  0  0  0  0  0  0  0  0  0  0
    1.5596    1.8632    0.0000 C   0  0  0  0  0  0  0  0  0  0  0  0
    0.7474    1.7180    0.0000 C   0  0  0  0  0  0  0  0  0  0  0  0
    3.1838    2.1536    0.0000 C   0  0  0  0  0  0  0  0  0  0  0  0
    2.6520    2.7843    0.0000 C   0  0  0  0  0  0  0  0  0  0  0  0
    1.8111    0.4565    0.0000 C   0  0  0  0  0  0  0  0  0  0  0  0
   -0.8637    0.3175    0.0000 C   0  0  0  0  0  0  0  0  0  0  0  0
   -0.3573    0.9688    0.0000 C   0  0  0  0  0  0  0  0  0  0  0  0
    2.0914    1.2325    0.0000 C   0  0  0  0  0  0  0  0  0  0  0  0
    2.9035    1.3777    0.0000 C   0  0  0  0  0  0  0  0  0  0  0  0
    0.4671    0.9420    0.0000 C   0  0  0  0  0  0  0  0  0  0  0  0
    2.9323    3.5602    0.0000 F   0  0  0  0  0  0  0  0  0  0  0  0
   -2.1873   -0.2209    0.0000 O   0  0  0  0  0  0  0  0  0  0  0  0
    5.3399    1.8133    0.0000 O   0  0  0  0  0  0  0  0  0  0  0  0
    2.3429   -0.1741    0.0000 O   0  0  0  0  0  0  0  0  0  0  0  0
   -0.5528   -0.4466    0.0000 O   0  0  0  0  0  0  0  0  0  0  0  0
  5  4  2  0
 11  1  1  6
 11  6  1  0
 12  4  1  0
 12  7  1  0
 13  8  1  6
 14  6  1  1
 14 13  1  0
 15  7  2  0
 16  8  1  0
 16 15  1  0
 17  9  1  0
 18 10  1  0
 19 11  1  0
 19 18  1  1
 20 13  1  0
 20 17  1  1
 21  2  1  1
 21  5  1  0
 21 15  1  0
 21 20  1  0
 22  3  1  1
 22  9  1  0
 22 14  1  0
 22 19  1  0
 16 23  1  6
 24 10  1  0
 25 12  2  0
 17 26  1  1
 27 18  2  0
M  END
$$$$
