
     RDKit          2D

 31 34  0  0  1  0  0  0  0  0999 V2000
    7.9466   -8.7523    0.0000 C   0  0  0  0  0  0  0  0  0  0  0  0
    8.6622   -9.1627    0.0000 C   0  0  0  0  0  0  0  0  0  0  0  0
    9.3756   -8.7482    0.0000 C   0  0  0  0  0  0  0  0  0  0  0  0
    9.3732   -7.9232    0.0000 C   0  0  0  0  0  0  0  0  0  0  0  0
    8.6576   -7.5127    0.0000 O   0  0  0  0  0  0  0  0  0  0  0  0
    7.9443   -7.9273    0.0000 C   0  0  0  0  0  0  0  0  0  0  0  0
    7.2286   -7.5168    0.0000 C   0  0  0  0  0  0  0  0  0  0  0  0
    8.6646   -9.9877    0.0000 O   0  0  0  0  0  0  0  0  0  0  0  0
   10.1576   -7.6683    0.0000 C   0  0  0  0  0  0  0  0  0  0  0  0
   10.0911   -9.1588    0.0000 O   0  0  0  0  0  0  0  0  0  0  0  0
    7.2333   -9.1668    0.0000 O   0  0  0  0  0  0  0  0  0  0  0  0
    7.2263   -6.6918    0.0000 O   0  0  0  0  0  0  0  0  0  0  0  0
   10.7707   -8.2203    0.0000 C   0  0  0  0  0  0  0  0  0  0  0  0
   11.5553   -7.9654    0.0000 C   0  0  0  0  0  0  0  0  0  0  0  0
   11.7268   -7.1584    0.0000 C   0  0  0  0  0  0  0  0  0  0  0  0
   11.1137   -6.6063    0.0000 C   0  0  0  0  0  0  0  0  0  0  0  0
   10.3291   -6.8613    0.0000 C   0  0  0  0  0  0  0  0  0  0  0  0
   12.5114   -6.9035    0.0000 C   0  0  0  0  0  0  0  0  0  0  0  0
   11.2853   -5.7994    0.0000 C   0  0  0  0  0  0  0  0  0  0  0  0
   12.0699   -5.5444    0.0000 C   0  0  0  0  0  0  0  0  0  0  0  0
   12.7373   -6.0294    0.0000 S   0  0  0  0  0  0  0  0  0  0  0  0
   13.4048   -5.5444    0.0000 C   0  0  0  0  0  0  0  0  0  0  0  0
   13.1498   -4.7598    0.0000 C   0  0  0  0  0  0  0  0  0  0  0  0
   12.3248   -4.7598    0.0000 C   0  0  0  0  0  0  0  0  0  0  0  0
   14.1894   -5.7994    0.0000 C   0  0  0  0  0  0  0  0  0  0  0  0
   14.3609   -6.6063    0.0000 C   0  0  0  0  0  0  0  0  0  0  0  0
   15.1455   -6.8613    0.0000 C   0  0  0  0  0  0  0  0  0  0  0  0
   15.7586   -6.3093    0.0000 C   0  0  0  0  0  0  0  0  0  0  0  0
   15.5871   -5.5023    0.0000 C   0  0  0  0  0  0  0  0  0  0  0  0
   14.8025   -5.2473    0.0000 C   0  0  0  0  0  0  0  0  0  0  0  0
   16.5433   -6.5642    0.0000 F   0  0  0  0  0  0  0  0  0  0  0  0
  1  2  1  0
  2  3  1  0
  3  4  1  0
  4  5  1  0
  5  6  1  0
  1  6  1  0
  6  7  1  1
  2  8  1  1
  4  9  1  1
  3 10  1  6
  1 11  1  6
  7 12  1  0
  9 13  2  0
 13 14  1  0
 14 15  2  0
 15 16  1  0
 16 17  2  0
  9 17  1  0
 15 18  1  0
 16 19  1  0
 19 20  1  0
 20 21  1  0
 21 22  1  0
 22 23  2  0
 23 24  1  0
 20 24  2  0
 22 25  1  0
 25 26  2  0
 26 27  1  0
 27 28  2  0
 28 29  1  0
 29 30  2  0
 25 30  1  0
 28 31  1  0
M  END
$$$$
