
     RDKit          2D

 18 18  0  0  0  0  0  0  0  0999 V2000
   -0.2062   -0.8250    0.0000 C   0  0  0  0  0  0  0  0  0  0  0  0
   -0.2062    0.0000    0.0000 C   0  0  0  0  0  0  0  0  0  0  0  0
   -0.2062    0.8250    0.0000 C   0  0  0  0  0  0  0  0  0  0  0  0
    0.5082    1.2375    0.0000 C   0  0  0  0  0  0  0  0  0  0  0  0
    0.5082    2.0625    0.0000 N   0  0  0  0  0  0  0  0  0  0  0  0
   -0.2062    2.4750    0.0000 C   0  0  0  0  0  0  0  0  0  0  0  0
    1.2226    2.4750    0.0000 C   0  0  0  0  0  0  0  0  0  0  0  0
    1.2226    0.8250    0.0000 C   0  0  0  0  0  0  0  0  0  0  0  0
   -1.0312    0.0000    0.0000 C   0  0  0  0  0  0  0  0  0  0  0  0
   -1.4437    0.7144    0.0000 C   0  0  0  0  0  0  0  0  0  0  0  0
   -1.4437   -0.7144    0.0000 C   0  0  0  0  0  0  0  0  0  0  0  0
    0.6187    0.0000    0.0000 C   0  0  0  0  0  0  0  0  0  0  0  0
    1.4437    0.0000    0.0000 N   0  0  0  0  0  0  0  0  0  0  0  0
    0.5082   -1.2375    0.0000 C   0  0  0  0  0  0  0  0  0  0  0  0
    0.5082   -2.0625    0.0000 C   0  0  0  0  0  0  0  0  0  0  0  0
   -0.2062   -2.4750    0.0000 C   0  0  0  0  0  0  0  0  0  0  0  0
   -0.9207   -2.0625    0.0000 C   0  0  0  0  0  0  0  0  0  0  0  0
   -0.9207   -1.2375    0.0000 C   0  0  0  0  0  0  0  0  0  0  0  0
  1  2  1  0
  2  3  1  6
  3  4  1  0
  4  5  1  0
  5  6  1  0
  5  7  1  0
  4  8  1  1
  2  9  1  0
  9 10  1  0
  9 11  1  0
  2 12  1  0
 12 13  3  0
  1 14  2  0
 14 15  1  0
 15 16  2  0
 16 17  1  0
 17 18  2  0
  1 18  1  0
M  END
$$$$
