
     RDKit          2D

 36 38  0  0  0  0  0  0  0  0999 V2000
   -1.3972   -0.3252    0.0000 P   0  0  0  0  0  0  0  0  0  0  0  0
   -1.6744   -1.1040    0.0000 O   0  0  0  0  0  0  0  0  0  0  0  0
   -1.1274    0.4547    0.0000 O   0  0  0  0  0  0  0  0  0  0  0  0
   -0.6185   -0.6023    0.0000 O   0  0  0  0  0  0  0  0  0  0  0  0
    0.0074   -0.0645    0.0000 C   0  0  0  0  0  0  0  0  0  0  0  0
    1.4470    0.1005    0.0000 O   0  0  0  0  0  0  0  0  0  0  0  0
    0.7725   -0.3796    0.0000 C   0  0  0  0  0  0  0  0  0  0  0  0
    1.0187   -1.1641    0.0000 C   0  0  0  0  0  0  0  0  0  0  0  0
    1.8461   -1.1742    0.0000 C   0  0  0  0  0  0  0  0  0  0  0  0
    2.1063   -0.3934    0.0000 C   0  0  0  0  0  0  0  0  0  0  0  0
    3.5408   -0.3827    0.0000 C   0  0  0  0  0  0  0  0  0  0  0  0
    4.2446    0.8598    0.0000 C   0  0  0  0  0  0  0  0  0  0  0  0
    3.5291    1.2684    0.0000 C   0  0  0  0  0  0  0  0  0  0  0  0
    2.8174    0.8503    0.0000 C   0  0  0  0  0  0  0  0  0  0  0  0
    2.8253    0.0257    0.0000 N   0  0  0  0  0  0  0  0  0  0  0  0
    4.9563    1.2779    0.0000 O   0  0  0  0  0  0  0  0  0  0  0  0
    3.5446   -1.2114    0.0000 O   0  0  0  0  0  0  0  0  0  0  0  0
    1.8364   -1.9961    0.0000 F   0  0  0  0  0  0  0  0  0  0  0  0
    2.6670   -1.1326    0.0000 C   0  0  0  0  0  0  0  0  0  0  0  0
   -2.0986    0.9191    0.0000 C   0  0  0  0  0  0  0  0  0  0  0  0
   -2.8088    1.3392    0.0000 C   0  0  0  0  0  0  0  0  0  0  0  0
   -1.3799    1.3242    0.0000 C   0  0  0  0  0  0  0  0  0  0  0  0
   -2.8001    2.1642    0.0000 O   0  0  0  0  0  0  0  0  0  0  0  0
   -3.5275    0.9343    0.0000 O   0  0  0  0  0  0  0  0  0  0  0  0
   -4.2376    1.3543    0.0000 C   0  0  0  0  0  0  0  0  0  0  0  0
   -4.2289    2.1792    0.0000 C   0  0  0  0  0  0  0  0  0  0  0  0
   -4.9563    0.9493    0.0000 C   0  0  0  0  0  0  0  0  0  0  0  0
   -2.4859   -1.2530    0.0000 C   0  0  0  0  0  0  0  0  0  0  0  0
   -3.0180   -0.6229    0.0000 C   0  0  0  0  0  0  0  0  0  0  0  0
   -3.8288   -0.7715    0.0000 C   0  0  0  0  0  0  0  0  0  0  0  0
   -4.1061   -1.5494    0.0000 C   0  0  0  0  0  0  0  0  0  0  0  0
   -3.5665   -2.1792    0.0000 C   0  0  0  0  0  0  0  0  0  0  0  0
   -2.7577   -2.0272    0.0000 C   0  0  0  0  0  0  0  0  0  0  0  0
   -2.1076    0.0942    0.0000 N   0  0  0  0  0  0  0  0  0  0  0  0
    0.5241   -1.8309    0.0000 O   0  0  0  0  0  0  0  0  0  0  0  0
    4.2522    0.0348    0.0000 N   0  0  0  0  0  0  0  0  0  0  0  0
 12 16  2  0
 11 17  2  0
 10 15  1  1
  1  4  1  0
  9 18  1  0
  9 19  1  1
  1  2  1  0
 20 21  1  0
  1  3  2  0
 20 22  1  6
  4  5  1  0
 21 23  2  0
  6  7  1  0
 21 24  1  0
  7  8  1  0
 24 25  1  0
  8  9  1  0
 25 26  1  0
  9 10  1  0
 25 27  1  0
  6 10  1  0
  2 28  1  0
  7  5  1  1
 28 29  2  0
 29 30  1  0
 30 31  2  0
 31 32  1  0
 12 13  1  0
 32 33  2  0
 33 28  1  0
 13 14  2  0
 14 15  1  0
 11 15  1  0
  8 35  1  6
  1 34  1  6
 34 20  1  0
 11 36  1  0
 36 12  1  0
M  END
$$$$
