
     RDKit          2D

 21 23  0  0  0  0  0  0  0  0999 V2000
    4.3200    3.6262    0.0000 C   0  0  0  0  0  0  0  0  0  0  0  0
    0.4620    6.0576    0.0000 C   0  0  0  0  0  0  0  0  0  0  0  0
   -1.8579    2.0392    0.0000 C   0  0  0  0  0  0  0  0  0  0  0  0
    1.0668    5.4964    0.0000 C   0  0  0  0  0  0  0  0  0  0  0  0
   -1.0695    1.7960    0.0000 C   0  0  0  0  0  0  0  0  0  0  0  0
   -0.3262    5.8144    0.0000 C   0  0  0  0  0  0  0  0  0  0  0  0
   -2.0414    2.8435    0.0000 C   0  0  0  0  0  0  0  0  0  0  0  0
    0.8832    4.6921    0.0000 C   0  0  0  0  0  0  0  0  0  0  0  0
   -0.4648    2.3572    0.0000 C   0  0  0  0  0  0  0  0  0  0  0  0
   -1.3256    4.8871    0.0000 C   0  0  0  0  0  0  0  0  0  0  0  0
   -1.7381    4.1726    0.0000 C   0  0  0  0  0  0  0  0  0  0  0  0
    2.8911    3.6262    0.0000 C   0  0  0  0  0  0  0  0  0  0  0  0
    2.1766    3.2137    0.0000 C   0  0  0  0  0  0  0  0  0  0  0  0
   -0.5098    5.0101    0.0000 C   0  0  0  0  0  0  0  0  0  0  0  0
   -1.4367    3.4047    0.0000 C   0  0  0  0  0  0  0  0  0  0  0  0
    0.0949    4.4489    0.0000 C   0  0  0  0  0  0  0  0  0  0  0  0
   -0.6483    3.1615    0.0000 C   0  0  0  0  0  0  0  0  0  0  0  0
    0.0332    3.6262    0.0000 C   0  0  0  0  0  0  0  0  0  0  0  0
    3.6056    3.2137    0.0000 N   0  0  0  0  0  0  0  0  0  0  0  0
    0.7477    3.2137    0.0000 N   0  0  0  0  0  0  0  0  0  0  0  0
    1.4622    3.6262    0.0000 O   0  0  0  0  0  0  0  0  0  0  0  0
  4  2  2  0
  5  3  2  0
  6  2  1  0
  7  3  1  0
  8  4  1  0
  9  5  1  0
 11 10  2  0
 13 12  1  0
 14  6  2  0
 14 10  1  0
 15  7  2  0
 15 11  1  0
 16  8  2  0
 16 14  1  0
 17  9  2  0
 17 15  1  0
 18 16  1  0
 18 17  1  0
 19  1  1  0
 19 12  1  0
 20 18  2  0
 21 13  1  0
 21 20  1  0
M  END
$$$$
