
     RDKit          2D

 53 56  0  0  1  0  0  0  0  0999 V2000
   17.5301   -5.5000    0.0000 O   0  0  0  0  0  0  0  0  0  0  0  0
   16.8157   -6.7375    0.0000 O   0  0  0  0  0  0  0  0  0  0  0  0
   14.6722   -5.5000    0.0000 O   0  0  0  0  0  0  0  0  0  0  0  0
   20.3880   -7.1500    0.0000 O   0  0  0  0  0  0  0  0  0  0  0  0
   19.6736   -5.9125    0.0000 O   0  0  0  0  0  0  0  0  0  0  0  0
   22.5316   -5.9125    0.0000 O   0  0  0  0  0  0  0  0  0  0  0  0
   14.6722   -7.1500    0.0000 O   0  0  0  0  0  0  0  0  0  0  0  0
   13.9577   -6.7375    0.0000 O   0  0  0  0  0  0  0  0  0  0  0  0
   17.5301   -7.1500    0.0000 O   0  0  0  0  0  0  0  0  0  0  0  0
   18.9591   -7.9750    0.0000 O   0  0  0  0  0  0  0  0  0  0  0  0
   20.3880   -5.5000    0.0000 O   0  0  0  0  0  0  0  0  0  0  0  0
   13.2432   -4.6750    0.0000 O   0  0  0  0  0  0  0  0  0  0  0  0
   23.2460   -7.1500    0.0000 O   0  0  0  0  0  0  0  0  0  0  0  0
   16.8157   -8.3875    0.0000 O   0  0  0  0  0  0  0  0  0  0  0  0
   11.8142   -5.5000    0.0000 O   0  0  0  0  0  0  0  0  0  0  0  0
   11.8142   -7.1500    0.0000 O   0  0  0  0  0  0  0  0  0  0  0  0
   19.6736   -4.2625    0.0000 O   0  0  0  0  0  0  0  0  0  0  0  0
   22.5316   -4.2625    0.0000 O   0  0  0  0  0  0  0  0  0  0  0  0
   18.2447   -4.2625    0.0000 O   0  0  0  0  0  0  0  0  0  0  0  0
   17.5301   -4.6750    0.0000 O   0  0  0  0  0  0  0  0  0  0  0  0
   12.5288   -8.3875    0.0000 O   0  0  0  0  0  0  0  0  0  0  0  0
   13.9577   -8.3875    0.0000 O   0  0  0  0  0  0  0  0  0  0  0  0
   22.5316   -9.2126    0.0000 O   0  0  0  0  0  0  0  0  0  0  0  0
   16.1012   -4.6750    0.0000 N   0  0  0  0  0  0  0  0  0  0  0  0
   21.8171   -7.9750    0.0000 N   0  0  0  0  0  0  0  0  0  0  0  0
   15.3867   -5.9125    0.0000 C   0  0  0  0  0  0  0  0  0  0  0  0
   16.1012   -5.5000    0.0000 C   0  0  0  0  0  0  0  0  0  0  0  0
   16.8157   -5.9125    0.0000 C   0  0  0  0  0  0  0  0  0  0  0  0
   15.3867   -6.7375    0.0000 C   0  0  0  0  0  0  0  0  0  0  0  0
   18.2447   -5.9125    0.0000 C   0  0  0  0  0  0  0  0  0  0  0  0
   16.1012   -7.1500    0.0000 C   0  0  0  0  0  0  0  0  0  0  0  0
   18.2447   -6.7375    0.0000 C   0  0  0  0  0  0  0  0  0  0  0  0
   18.9591   -7.1500    0.0000 C   0  0  0  0  0  0  0  0  0  0  0  0
   21.1026   -6.7375    0.0000 C   0  0  0  0  0  0  0  0  0  0  0  0
   19.6736   -6.7375    0.0000 C   0  0  0  0  0  0  0  0  0  0  0  0
   18.9591   -5.5000    0.0000 C   0  0  0  0  0  0  0  0  0  0  0  0
   21.8171   -7.1500    0.0000 C   0  0  0  0  0  0  0  0  0  0  0  0
   21.1026   -5.9125    0.0000 C   0  0  0  0  0  0  0  0  0  0  0  0
   13.9577   -5.9125    0.0000 C   0  0  0  0  0  0  0  0  0  0  0  0
   21.8171   -5.5000    0.0000 C   0  0  0  0  0  0  0  0  0  0  0  0
   13.2432   -5.5000    0.0000 C   0  0  0  0  0  0  0  0  0  0  0  0
   22.5316   -6.7375    0.0000 C   0  0  0  0  0  0  0  0  0  0  0  0
   16.1012   -7.9750    0.0000 C   0  0  0  0  0  0  0  0  0  0  0  0
   12.5288   -5.9125    0.0000 C   0  0  0  0  0  0  0  0  0  0  0  0
   12.5288   -6.7375    0.0000 C   0  0  0  0  0  0  0  0  0  0  0  0
   13.2432   -7.1500    0.0000 C   0  0  0  0  0  0  0  0  0  0  0  0
   18.9591   -4.6750    0.0000 C   0  0  0  0  0  0  0  0  0  0  0  0
   21.8171   -4.6750    0.0000 C   0  0  0  0  0  0  0  0  0  0  0  0
   16.8157   -4.2625    0.0000 C   0  0  0  0  0  0  0  0  0  0  0  0
   13.2432   -7.9750    0.0000 C   0  0  0  0  0  0  0  0  0  0  0  0
   22.5316   -8.3875    0.0000 C   0  0  0  0  0  0  0  0  0  0  0  0
   16.8157   -3.4375    0.0000 C   0  0  0  0  0  0  0  0  0  0  0  0
   23.2460   -7.9750    0.0000 C   0  0  0  0  0  0  0  0  0  0  0  0
 28  1  1  6
 30  1  1  6
  2 28  1  0
  2 31  1  0
  3 26  1  0
 39  3  1  6
  4 34  1  0
 35  4  1  1
  5 35  1  0
  5 36  1  0
  6 40  1  0
  6 42  1  0
 29  7  1  1
  8 39  1  0
  8 46  1  0
 32  9  1  1
 33 10  1  6
 38 11  1  6
 41 12  1  1
 42 13  1  1
 14 43  1  0
 44 15  1  6
 45 16  1  1
 17 47  1  0
 18 48  1  0
 19 47  2  0
 20 49  2  0
 21 50  1  0
 22 50  2  0
 23 51  2  0
 27 24  1  1
 24 49  1  0
 37 25  1  6
 25 51  1  0
 26 27  1  0
 26 29  1  0
 27 28  1  0
 29 31  1  0
 30 32  1  0
 30 36  1  0
 31 43  1  6
 32 33  1  0
 33 35  1  0
 34 37  1  0
 34 38  1  0
 36 47  1  1
 37 42  1  0
 38 40  1  0
 39 41  1  0
 40 48  1  1
 41 44  1  0
 44 45  1  0
 45 46  1  0
 46 50  1  6
 49 52  1  0
 51 53  1  0
M  END
$$$$
