
     RDKit          2D

 30 33  0  0  0  0  0  0  0  0999 V2000
    2.8452   -0.9219    0.0000 C   0  0  0  0  0  0  0  0  0  0  0  0
    2.8452   -0.0969    0.0000 N   0  0  0  0  0  0  0  0  0  0  0  0
    3.5465    0.3156    0.0000 C   0  0  0  0  0  0  0  0  0  0  0  0
    4.2890   -0.0969    0.0000 C   0  0  0  0  0  0  0  0  0  0  0  0
    4.2890   -0.9219    0.0000 C   0  0  0  0  0  0  0  0  0  0  0  0
    3.5465   -1.3344    0.0000 C   0  0  0  0  0  0  0  0  0  0  0  0
    2.1440   -1.3344    0.0000 C   0  0  0  0  0  0  0  0  0  0  0  0
    1.4015   -0.9219    0.0000 N   0  0  0  0  0  0  0  0  0  0  0  0
    1.4015   -0.0969    0.0000 C   0  0  0  0  0  0  0  0  0  0  0  0
    2.1440    0.3156    0.0000 C   0  0  0  0  0  0  0  0  0  0  0  0
    0.6590   -1.3344    0.0000 C   0  0  0  0  0  0  0  0  0  0  0  0
   -0.0423   -0.9219    0.0000 C   0  0  0  0  0  0  0  0  0  0  0  0
   -0.0423   -0.0969    0.0000 C   0  0  0  0  0  0  0  0  0  0  0  0
    0.6590    0.3156    0.0000 O   0  0  0  0  0  0  0  0  0  0  0  0
    2.1440   -2.1594    0.0000 O   0  0  0  0  0  0  0  0  0  0  0  0
    3.5465   -2.1594    0.0000 O   0  0  0  0  0  0  0  0  0  0  0  0
    4.9902   -1.3344    0.0000 O   0  0  0  0  0  0  0  0  0  0  0  0
    4.9902    0.3156    0.0000 C   0  0  0  0  0  0  0  0  0  0  0  0
    5.6914   -0.0969    0.0000 N   0  0  0  0  0  0  0  0  0  0  0  0
    4.9902    1.1406    0.0000 O   0  0  0  0  0  0  0  0  0  0  0  0
    6.3926    0.3156    0.0000 C   0  0  0  0  0  0  0  0  0  0  0  0
    7.0940   -0.0969    0.0000 C   0  0  0  0  0  0  0  0  0  0  0  0
    7.7952    0.3156    0.0000 C   0  0  0  0  0  0  0  0  0  0  0  0
    8.5376   -0.0969    0.0000 C   0  0  0  0  0  0  0  0  0  0  0  0
    8.5376   -0.9219    0.0000 C   0  0  0  0  0  0  0  0  0  0  0  0
    7.8365   -1.3344    0.0000 C   0  0  0  0  0  0  0  0  0  0  0  0
    7.0940   -0.9219    0.0000 C   0  0  0  0  0  0  0  0  0  0  0  0
    6.3926   -1.3344    0.0000 F   0  0  0  0  0  0  0  0  0  0  0  0
    9.2390   -1.3344    0.0000 F   0  0  0  0  0  0  0  0  0  0  0  0
    0.6488   -2.1593    0.0000 C   0  0  0  0  0  0  0  0  0  0  0  0
  1  2  1  0
  2  3  1  0
  3  4  2  0
  4  5  1  0
  5  6  1  0
  1  6  2  0
  1  7  1  0
  7  8  1  0
  8  9  1  0
  9 10  1  1
  2 10  1  0
  8 11  1  0
 11 12  1  0
 12 13  1  0
 13 14  1  0
  9 14  1  0
  7 15  2  0
  6 16  1  0
  5 17  2  0
  4 18  1  0
 18 19  1  0
 18 20  2  0
 19 21  1  0
 21 22  1  0
 22 23  2  0
 23 24  1  0
 24 25  2  0
 25 26  1  0
 26 27  2  0
 22 27  1  0
 27 28  1  0
 25 29  1  0
 11 30  1  6
M  END
$$$$
