
     RDKit          2D

 19 20  0  0  0  0  0  0  0  0999 V2000
    3.6184   -1.0852    0.0000 C   0  0  0  0  0  0  0  0  0  0  0  0
    0.0058    2.0279    0.0000 C   0  0  0  0  0  0  0  0  0  0  0  0
    3.0053   -1.6372    0.0000 C   0  0  0  0  0  0  0  0  0  0  0  0
    1.2645   -2.7954    0.0000 C   0  0  0  0  0  0  0  0  0  0  0  0
    1.9790   -2.3829    0.0000 C   0  0  0  0  0  0  0  0  0  0  0  0
    0.5501   -2.3829    0.0000 C   0  0  0  0  0  0  0  0  0  0  0  0
   -0.2126   -0.1539    0.0000 C   0  0  0  0  0  0  0  0  0  0  0  0
    1.9790   -1.5579    0.0000 C   0  0  0  0  0  0  0  0  0  0  0  0
    0.5501   -1.5579    0.0000 C   0  0  0  0  0  0  0  0  0  0  0  0
    0.4858   -0.5929    0.0000 C   0  0  0  0  0  0  0  0  0  0  0  0
    1.5370    0.4582    0.0000 C   0  0  0  0  0  0  0  0  0  0  0  0
   -0.3050    0.6658    0.0000 C   0  0  0  0  0  0  0  0  0  0  0  0
    1.0981    1.1568    0.0000 C   0  0  0  0  0  0  0  0  0  0  0  0
    1.2645   -1.1454    0.0000 C   0  0  0  0  0  0  0  0  0  0  0  0
    2.0492   -0.5753    0.0000 C   0  0  0  0  0  0  0  0  0  0  0  0
    1.2645   -0.3204    0.0000 C   0  0  0  0  0  0  0  0  0  0  0  0
    0.2783    1.2491    0.0000 N   0  0  0  0  0  0  0  0  0  0  0  0
    2.6623   -0.0233    0.0000 O   0  0  0  0  0  0  0  0  0  0  0  0
    2.2207   -1.3823    0.0000 O   0  0  0  0  0  0  0  0  0  0  0  0
  3  1  1  0
  5  4  2  0
  6  4  1  0
  8  5  1  0
  9  6  2  0
 10  7  1  0
 12  7  1  0
 13 11  1  0
 14  8  2  0
 14  9  1  0
 16 10  1  0
 16 11  1  0
 16 14  1  0
 16 15  1  0
 17  2  1  0
 17 12  1  0
 17 13  1  0
 18 15  2  0
 19  3  1  0
 19 15  1  0
M  END
$$$$
