
     RDKit          2D

 32 36  0  0  0  0  0  0  0  0999 V2000
   -2.9056   -2.0855    0.0000 C   0  0  0  0  0  0  0  0  0  0  0  0
   -2.7424   -1.2786    0.0000 C   0  0  0  0  0  0  0  0  0  0  0  0
   -2.7523   -0.4550    0.0000 O   0  0  0  0  0  0  0  0  0  0  0  0
   -1.9679   -0.1956    0.0000 C   0  0  0  0  0  0  0  0  0  0  0  0
   -1.4875    0.4798    0.0000 C   0  0  0  0  0  0  0  0  0  0  0  0
   -0.7049    0.2347    0.0000 C   0  0  0  0  0  0  0  0  0  0  0  0
    0.0066    0.6515    0.0000 C   0  0  0  0  0  0  0  0  0  0  0  0
   -0.0032    1.4753    0.0000 C   0  0  0  0  0  0  0  0  0  0  0  0
    0.7040    1.8964    0.0000 C   0  0  0  0  0  0  0  0  0  0  0  0
    1.4257    1.4894    0.0000 C   0  0  0  0  0  0  0  0  0  0  0  0
    2.1331    1.9107    0.0000 C   0  0  0  0  0  0  0  0  0  0  0  0
    2.8548    1.5039    0.0000 C   0  0  0  0  0  0  0  0  0  0  0  0
    3.5665    1.9250    0.0000 O   0  0  0  0  0  0  0  0  0  0  0  0
    2.8612    0.6822    0.0000 C   0  0  0  0  0  0  0  0  0  0  0  0
    2.1537    0.2610    0.0000 C   0  0  0  0  0  0  0  0  0  0  0  0
    1.4322    0.6637    0.0000 C   0  0  0  0  0  0  0  0  0  0  0  0
    0.7203    0.2468    0.0000 C   0  0  0  0  0  0  0  0  0  0  0  0
    0.7347   -0.5768    0.0000 C   0  0  0  0  0  0  0  0  0  0  0  0
    0.0230   -0.9938    0.0000 C   0  0  0  0  0  0  0  0  0  0  0  0
   -0.6986   -0.5911    0.0000 C   0  0  0  0  0  0  0  0  0  0  0  0
   -1.4788   -0.8545    0.0000 C   0  0  0  0  0  0  0  0  0  0  0  0
   -1.9554   -1.5236    0.0000 O   0  0  0  0  0  0  0  0  0  0  0  0
   -0.8871   -2.0326    0.0000 C   0  0  0  0  0  0  0  0  0  0  0  0
   -0.0638   -2.0815    0.0000 O   0  0  0  0  0  0  0  0  0  0  0  0
   -1.3443   -2.7224    0.0000 C   0  0  0  0  0  0  0  0  0  0  0  0
   -2.1674   -2.6735    0.0000 O   0  0  0  0  0  0  0  0  0  0  0  0
   -0.6269   -1.4151    0.0000 C   0  0  0  0  0  0  0  0  0  0  0  0
    1.2647   -1.2047    0.0000 Cl  0  0  0  0  0  0  0  0  0  0  0  0
    1.8773   -0.4012    0.0000 Cl  0  0  0  0  0  0  0  0  0  0  0  0
    0.6976    2.7224    0.0000 F   0  0  0  0  0  0  0  0  0  0  0  0
   -3.5665   -1.2025    0.0000 C   0  0  0  0  0  0  0  0  0  0  0  0
    0.6781    1.1010    0.0000 C   0  0  0  0  0  0  0  0  0  0  0  0
  4  5  1  6
  6  5  1  1
  6  7  1  0
  7  8  1  6
  8  9  1  0
  9 10  1  0
 10 11  2  0
 11 12  1  0
 12 13  2  0
 12 14  1  0
 14 15  2  0
 15 16  1  0
 10 16  1  0
 16 17  1  0
  7 17  1  0
 17 18  1  0
 18 19  1  0
 19 20  1  0
  6 20  1  0
 20 21  1  0
  4 21  1  0
 21 22  1  0
  2 22  1  0
 21 23  1  1
 23 24  2  0
 23 25  1  0
 25 26  1  0
 20 27  1  1
 18 28  1  1
 17 29  1  6
  9 30  1  6
  2 31  1  0
 16 32  1  1
  1  2  1  0
  2  3  1  0
  4  3  1  0
M  END
$$$$
