5502
     RDKit          2D

 28 30  0  0  1  0  0  0  0  0999 V2000
    2.3920   -1.3924    0.0000 O   0  0  0  0  0  0  0  0  0  0  0  0
    3.9144   -2.1256    0.0000 O   0  0  0  0  0  0  0  0  0  0  0  0
    8.0479   -0.0257    0.0000 O   0  0  0  0  0  0  0  0  0  0  0  0
    7.8019   -1.6573    0.0000 O   0  0  0  0  0  0  0  0  0  0  0  0
    4.8910    1.8496    0.0000 N   0  0  0  0  0  0  0  0  0  0  0  0
    5.4054    1.2046    0.0000 N   0  0  0  0  0  0  0  0  0  0  0  0
    3.5516    1.2046    0.0000 C   0  0  0  0  0  0  0  0  0  0  0  0
    3.7352    0.4003    0.0000 C   0  0  0  0  0  0  0  0  0  0  0  0
    2.7473    1.3882    0.0000 C   0  0  0  0  0  0  0  0  0  0  0  0
    4.4785    0.0423    0.0000 C   0  0  0  0  0  0  0  0  0  0  0  0
    4.0660    1.8496    0.0000 C   0  0  0  0  0  0  0  0  0  0  0  0
    3.0178   -0.0728    0.0000 C   0  0  0  0  0  0  0  0  0  0  0  0
    5.2219    0.4003    0.0000 C   0  0  0  0  0  0  0  0  0  0  0  0
    4.5560   -0.8135    0.0000 C   0  0  0  0  0  0  0  0  0  0  0  0
    2.5041    2.1766    0.0000 C   0  0  0  0  0  0  0  0  0  0  0  0
    3.0754   -0.9302    0.0000 C   0  0  0  0  0  0  0  0  0  0  0  0
    3.8497   -1.3031    0.0000 C   0  0  0  0  0  0  0  0  0  0  0  0
    3.7080    2.5929    0.0000 C   0  0  0  0  0  0  0  0  0  0  0  0
    5.8668   -0.1141    0.0000 C   0  0  0  0  0  0  0  0  0  0  0  0
    6.6349    0.1873    0.0000 C   0  0  0  0  0  0  0  0  0  0  0  0
    5.7439   -0.9299    0.0000 C   0  0  0  0  0  0  0  0  0  0  0  0
    7.2799   -0.3271    0.0000 C   0  0  0  0  0  0  0  0  0  0  0  0
    6.3889   -1.4443    0.0000 C   0  0  0  0  0  0  0  0  0  0  0  0
    7.1569   -1.1429    0.0000 C   0  0  0  0  0  0  0  0  0  0  0  0
    1.6500   -1.0315    0.0000 C   0  0  0  0  0  0  0  0  0  0  0  0
    3.2346   -2.5929    0.0000 C   0  0  0  0  0  0  0  0  0  0  0  0
    8.1708    0.7901    0.0000 C   0  0  0  0  0  0  0  0  0  0  0  0
    7.6790   -2.4731    0.0000 C   0  0  0  0  0  0  0  0  0  0  0  0
  1 16  1  0
  1 25  1  0
  2 17  1  0
  2 26  1  0
  3 22  1  0
  3 27  1  0
  4 24  1  0
  4 28  1  0
  5  6  1  0
  5 11  2  0
  6 13  2  0
  7  8  1  0
  7  9  1  0
  7 11  1  0
  8 10  2  0
  8 12  1  0
  9 15  1  0
 10 13  1  0
 10 14  1  0
 11 18  1  0
 12 16  2  0
 13 19  1  0
 14 17  2  0
 16 17  1  0
 19 20  2  0
 19 21  1  0
 20 22  1  0
 21 23  2  0
 22 24  2  0
 23 24  1  0
M  END
$$$$
