MI1
     RDKit          2D

 23 25  0  0  0  0  0  0  0  0999 V2000
   -0.0273    0.3235    0.0000 C   0  0  0  0  0  0  0  0  0  0  0  0
    0.6871   -0.0890    0.0000 C   0  0  0  0  0  0  0  0  0  0  0  0
    1.4016    1.1485    0.0000 C   0  0  0  0  0  0  0  0  0  0  0  0
    0.6871    1.5610    0.0000 C   0  0  0  0  0  0  0  0  0  0  0  0
   -0.0273    1.1485    0.0000 C   0  0  0  0  0  0  0  0  0  0  0  0
    1.4016    0.3235    0.0000 N   0  0  0  0  0  0  0  0  0  0  0  0
    2.1161   -0.9140    0.0000 O   0  0  0  0  0  0  0  0  0  0  0  0
    2.1161   -0.0890    0.0000 C   0  0  0  0  0  0  0  0  0  0  0  0
    2.8305    0.3235    0.0000 C   0  0  0  0  0  0  0  0  0  0  0  0
    3.5450   -0.0890    0.0000 C   0  0  0  0  0  0  0  0  0  0  0  0
    4.2595   -0.5015    0.0000 N   0  0  0  0  0  0  0  0  0  0  0  0
   -0.7418    1.5610    0.0000 C   0  0  0  0  0  0  0  0  0  0  0  0
   -0.7418   -0.0890    0.0000 N   0  0  0  0  0  0  0  0  0  0  0  0
   -1.4563    0.3235    0.0000 C   0  0  0  0  0  0  0  0  0  0  0  0
   -0.7418   -0.9140    0.0000 C   0  0  0  0  0  0  0  0  0  0  0  0
   -1.4563   -1.3265    0.0000 C   0  0  0  0  0  0  0  0  0  0  0  0
   -2.2409   -1.0716    0.0000 C   0  0  0  0  0  0  0  0  0  0  0  0
   -2.7258   -1.7390    0.0000 C   0  0  0  0  0  0  0  0  0  0  0  0
   -2.2409   -2.4065    0.0000 N   0  0  0  0  0  0  0  0  0  0  0  0
   -1.4563   -2.1515    0.0000 C   0  0  0  0  0  0  0  0  0  0  0  0
   -0.7418   -2.5640    0.0000 N   0  0  0  0  0  0  0  0  0  0  0  0
   -0.0273   -2.1515    0.0000 C   0  0  0  0  0  0  0  0  0  0  0  0
   -0.0273   -1.3265    0.0000 N   0  0  0  0  0  0  0  0  0  0  0  0
  1  5  1  0
  1 13  1  6
  2  1  1  0
  3  4  1  0
  4  5  1  0
  6  2  1  0
  6  3  1  0
  7  8  2  0
  8  6  1  0
  9  8  1  0
 10  9  1  0
 11 10  3  0
  5 12  1  6
 13 15  1  0
 14 13  1  0
 15 23  1  0
 15 16  2  0
 16 17  1  0
 16 20  1  0
 17 18  2  0
 18 19  1  0
 20 19  1  0
 20 21  2  0
 22 21  1  0
 23 22  2  0
M  END
$$$$
