 
     RDKit          2D

 37 41  0  0  0  0  0  0  0  0999 V2000
   13.7618  -13.8455    0.0000 C   0  0  0  0  0  0  0  0  0  0  0  0
   13.7618  -14.6820    0.0000 C   0  0  0  0  0  0  0  0  0  0  0  0
   14.4729  -15.1003    0.0000 C   0  0  0  0  0  0  0  0  0  0  0  0
   15.1840  -14.6820    0.0000 N   0  0  0  0  0  0  0  0  0  0  0  0
   15.1840  -13.8455    0.0000 C   0  0  0  0  0  0  0  0  0  0  0  0
   14.4729  -13.4272    0.0000 C   0  0  0  0  0  0  0  0  0  0  0  0
   14.4729  -12.5906    0.0000 C   0  0  0  0  0  0  0  0  0  0  0  0
   13.7618  -12.1723    0.0000 N   0  0  0  0  0  0  0  0  0  0  0  0
   13.0089  -12.5906    0.0000 C   0  0  0  0  0  0  0  0  0  0  0  0
   13.0089  -13.4272    0.0000 N   0  0  0  0  0  0  0  0  0  0  0  0
   13.7618  -11.3357    0.0000 C   0  0  0  0  0  0  0  0  0  0  0  0
   15.1840  -12.1723    0.0000 O   0  0  0  0  0  0  0  0  0  0  0  0
   12.2978  -12.1723    0.0000 O   0  0  0  0  0  0  0  0  0  0  0  0
   14.4729  -15.9787    0.0000 O   0  0  0  0  0  0  0  0  0  0  0  0
   15.9369  -15.1422    0.0000 C   0  0  0  0  0  0  0  0  0  0  0  0
   15.9369  -13.4272    0.0000 N   0  0  0  0  0  0  0  0  0  0  0  0
   16.6480  -13.8455    0.0000 C   0  0  0  0  0  0  0  0  0  0  0  0
   16.6480  -14.6820    0.0000 C   0  0  0  0  0  0  0  0  0  0  0  0
   17.4009  -15.1003    0.0000 C   0  0  0  0  0  0  0  0  0  0  0  0
   18.1120  -14.6820    0.0000 C   0  0  0  0  0  0  0  0  0  0  0  0
   18.1120  -13.8455    0.0000 C   0  0  0  0  0  0  0  0  0  0  0  0
   17.4009  -13.4272    0.0000 C   0  0  0  0  0  0  0  0  0  0  0  0
   17.4009  -12.5906    0.0000 F   0  0  0  0  0  0  0  0  0  0  0  0
   18.8231  -15.1003    0.0000 I   0  0  0  0  0  0  0  0  0  0  0  0
   13.0089  -15.1003    0.0000 C   0  0  0  0  0  0  0  0  0  0  0  0
   12.2978  -13.8455    0.0000 C   0  0  0  0  0  0  0  0  0  0  0  0
   11.5867  -13.4272    0.0000 C   0  0  0  0  0  0  0  0  0  0  0  0
   10.8756  -13.8455    0.0000 C   0  0  0  0  0  0  0  0  0  0  0  0
   10.8756  -14.7239    0.0000 C   0  0  0  0  0  0  0  0  0  0  0  0
   11.5867  -15.1003    0.0000 C   0  0  0  0  0  0  0  0  0  0  0  0
   12.2978  -14.6820    0.0000 C   0  0  0  0  0  0  0  0  0  0  0  0
   10.1227  -13.4272    0.0000 N   0  0  0  0  0  0  0  0  0  0  0  0
    9.4116  -13.8455    0.0000 C   0  0  0  0  0  0  0  0  0  0  0  0
    8.7005  -13.4272    0.0000 C   0  0  0  0  0  0  0  0  0  0  0  0
    9.4116  -14.6820    0.0000 O   0  0  0  0  0  0  0  0  0  0  0  0
   14.1801  -10.6246    0.0000 C   0  0  0  0  0  0  0  0  0  0  0  0
   13.3435  -10.6246    0.0000 C   0  0  0  0  0  0  0  0  0  0  0  0
  1  2  2  0
  2  3  1  0
  3  4  1  0
  4  5  1  0
  5  6  2  0
  1  6  1  0
  6  7  1  0
  7  8  1  0
  8  9  1  0
  9 10  1  0
  1 10  1  0
  8 11  1  0
  7 12  2  0
  9 13  2  0
  3 14  2  0
  4 15  1  0
  5 16  1  0
 16 17  1  0
 17 18  2  0
 18 19  1  0
 19 20  2  0
 20 21  1  0
 21 22  2  0
 17 22  1  0
 22 23  1  0
 20 24  1  0
  2 25  1  0
 10 26  1  0
 26 27  2  0
 27 28  1  0
 28 29  2  0
 29 30  1  0
 30 31  2  0
 26 31  1  0
 28 32  1  0
 32 33  1  0
 33 34  1  0
 33 35  2  0
 36 37  1  0
 37 11  1  0
 11 36  1  0
M  END
$$$$
