5105
     RDKit          2D

 25 26  0  0  0  0  0  0  0  0999 V2000
    5.2224    0.8250    0.0000 O   0  0  0  0  0  0  0  0  0  0  0  0
    3.0790   -3.7126    0.0000 O   0  0  0  0  0  0  0  0  0  0  0  0
    4.5080   -2.8876    0.0000 O   0  0  0  0  0  0  0  0  0  0  0  0
    1.6500   -3.7126    0.0000 O   0  0  0  0  0  0  0  0  0  0  0  0
    7.3659    3.7126    0.0000 N   0  0  0  0  0  0  0  0  0  0  0  0
    3.7935   -1.6500    0.0000 N   0  0  0  0  0  0  0  0  0  0  0  0
    8.0804    3.3001    0.0000 C   0  0  0  0  0  0  0  0  0  0  0  0
    7.3659    4.5376    0.0000 C   0  0  0  0  0  0  0  0  0  0  0  0
    8.0804    4.9501    0.0000 C   0  0  0  0  0  0  0  0  0  0  0  0
    8.7949    3.7126    0.0000 C   0  0  0  0  0  0  0  0  0  0  0  0
    8.7949    4.5376    0.0000 C   0  0  0  0  0  0  0  0  0  0  0  0
    6.6515    3.3001    0.0000 C   0  0  0  0  0  0  0  0  0  0  0  0
    6.6515    2.4751    0.0000 C   0  0  0  0  0  0  0  0  0  0  0  0
    5.9370    2.0625    0.0000 C   0  0  0  0  0  0  0  0  0  0  0  0
    7.3659    2.0625    0.0000 C   0  0  0  0  0  0  0  0  0  0  0  0
    5.9370    1.2375    0.0000 C   0  0  0  0  0  0  0  0  0  0  0  0
    7.3659    1.2375    0.0000 C   0  0  0  0  0  0  0  0  0  0  0  0
    6.6515    0.8250    0.0000 C   0  0  0  0  0  0  0  0  0  0  0  0
    5.2224    0.0000    0.0000 C   0  0  0  0  0  0  0  0  0  0  0  0
    4.5080   -0.4125    0.0000 C   0  0  0  0  0  0  0  0  0  0  0  0
    4.5080   -1.2375    0.0000 C   0  0  0  0  0  0  0  0  0  0  0  0
    3.7935   -2.4751    0.0000 C   0  0  0  0  0  0  0  0  0  0  0  0
    3.0790   -2.8876    0.0000 C   0  0  0  0  0  0  0  0  0  0  0  0
    2.3645   -4.1251    0.0000 C   0  0  0  0  0  0  0  0  0  0  0  0
    2.3645   -4.9501    0.0000 C   0  0  0  0  0  0  0  0  0  0  0  0
  1 16  1  0
  1 19  1  0
  2 23  1  0
  2 24  1  0
  3 22  2  0
  4 24  2  0
  5  7  1  0
  5  8  1  0
  5 12  1  0
  6 21  1  0
  6 22  1  0
  7 10  1  0
  8  9  1  0
  9 11  1  0
 10 11  1  0
 12 13  1  0
 13 14  2  0
 13 15  1  0
 14 16  1  0
 15 17  2  0
 16 18  2  0
 17 18  1  0
 19 20  1  0
 20 21  1  0
 22 23  1  0
 24 25  1  0
M  END
$$$$
