2475
     RDKit          2D

 18 18  0  0  1  0  0  0  0  0999 V2000
    1.6500   -1.3885    0.0000 Cl  0  0  0  0  0  0  0  0  0  0  0  0
    3.0790    1.0865    0.0000 O   0  0  0  0  0  0  0  0  0  0  0  0
    3.0790   -0.5635    0.0000 O   0  0  0  0  0  0  0  0  0  0  0  0
    4.5080    1.9116    0.0000 N   0  0  0  0  0  0  0  0  0  0  0  0
    5.2224    2.3241    0.0000 C   0  0  0  0  0  0  0  0  0  0  0  0
    4.5080    1.0865    0.0000 C   0  0  0  0  0  0  0  0  0  0  0  0
    3.7935    0.6740    0.0000 C   0  0  0  0  0  0  0  0  0  0  0  0
    5.9370    2.7366    0.0000 C   0  0  0  0  0  0  0  0  0  0  0  0
    4.8099    3.0385    0.0000 C   0  0  0  0  0  0  0  0  0  0  0  0
    5.6350    1.6096    0.0000 C   0  0  0  0  0  0  0  0  0  0  0  0
    3.7935   -0.1510    0.0000 C   0  0  0  0  0  0  0  0  0  0  0  0
    3.0790   -1.3885    0.0000 C   0  0  0  0  0  0  0  0  0  0  0  0
    3.7935   -1.8010    0.0000 C   0  0  0  0  0  0  0  0  0  0  0  0
    2.3645   -1.8010    0.0000 C   0  0  0  0  0  0  0  0  0  0  0  0
    3.7935   -2.6260    0.0000 C   0  0  0  0  0  0  0  0  0  0  0  0
    3.0790   -3.0385    0.0000 C   0  0  0  0  0  0  0  0  0  0  0  0
    2.3645   -2.6260    0.0000 C   0  0  0  0  0  0  0  0  0  0  0  0
    4.5080   -3.0385    0.0000 C   0  0  0  0  0  0  0  0  0  0  0  0
  1 14  1  0
  2  7  1  0
  3 11  1  0
  3 12  1  0
  4  5  1  0
  4  6  1  0
  5  8  1  0
  5  9  1  0
  5 10  1  0
  6  7  1  0
  7 11  1  0
 12 13  2  0
 12 14  1  0
 13 15  1  0
 14 17  2  0
 15 16  2  0
 15 18  1  0
 16 17  1  0
M  END
$$$$
