 
     RDKit          2D

 20 22  0  0  0  0  0  0  0  0999 V2000
   15.4857   -9.4819    0.0000 N   0  0  0  0  0  0  0  0  0  0  0  0
   16.3138   -9.4819    0.0000 C   0  0  0  0  0  0  0  0  0  0  0  0
   14.9888  -10.1444    0.0000 C   0  0  0  0  0  0  0  0  0  0  0  0
   14.9888   -8.8194    0.0000 C   0  0  0  0  0  0  0  0  0  0  0  0
   16.7278   -8.7366    0.0000 C   0  0  0  0  0  0  0  0  0  0  0  0
   16.7278  -10.1858    0.0000 C   0  0  0  0  0  0  0  0  0  0  0  0
   14.2021   -9.8959    0.0000 C   0  0  0  0  0  0  0  0  0  0  0  0
   15.2787  -10.9311    0.0000 O   0  0  0  0  0  0  0  0  0  0  0  0
   14.2021   -9.0678    0.0000 C   0  0  0  0  0  0  0  0  0  0  0  0
   15.2372   -8.0327    0.0000 O   0  0  0  0  0  0  0  0  0  0  0  0
   17.5560   -8.7366    0.0000 N   0  0  0  0  0  0  0  0  0  0  0  0
   16.3138   -8.0327    0.0000 O   0  0  0  0  0  0  0  0  0  0  0  0
   17.5974  -10.1858    0.0000 C   0  0  0  0  0  0  0  0  0  0  0  0
   13.4982  -10.3100    0.0000 C   0  0  0  0  0  0  0  0  0  0  0  0
   13.4982   -8.6538    0.0000 C   0  0  0  0  0  0  0  0  0  0  0  0
   17.9700   -9.4405    0.0000 C   0  0  0  0  0  0  0  0  0  0  0  0
   12.7943   -9.8959    0.0000 C   0  0  0  0  0  0  0  0  0  0  0  0
   12.7943   -9.0678    0.0000 C   0  0  0  0  0  0  0  0  0  0  0  0
   18.7981   -9.4405    0.0000 O   0  0  0  0  0  0  0  0  0  0  0  0
   13.4982   -7.8257    0.0000 N   0  0  0  0  0  0  0  0  0  0  0  0
  1  2  1  0
  1  3  1  0
  1  4  1  0
  2  5  1  0
  2  6  1  0
  3  7  1  0
  3  8  2  0
  4  9  1  0
  4 10  2  0
  5 11  1  0
  5 12  2  0
  6 13  1  0
  7 14  2  0
  9 15  2  0
 11 16  1  0
 14 17  1  0
 15 18  1  0
 16 19  2  0
  7  9  1  0
 13 16  1  0
 17 18  2  0
 15 20  1  0
M  END
$$$$
