 
     RDKit          2D

 22 25  0  0  1  0  0  0  0  0999 V2000
   14.3963   -9.9000    0.0000 C   0  0  0  0  0  0  0  0  0  0  0  0
   14.3963  -10.7250    0.0000 C   0  0  0  0  0  0  0  0  0  0  0  0
   15.8252  -10.7250    0.0000 C   0  0  0  0  0  0  0  0  0  0  0  0
   15.8252   -9.9000    0.0000 C   0  0  0  0  0  0  0  0  0  0  0  0
   15.1107   -9.4875    0.0000 C   0  0  0  0  0  0  0  0  0  0  0  0
   13.6818   -9.4875    0.0000 C   0  0  0  0  0  0  0  0  0  0  0  0
   12.9673   -9.9000    0.0000 C   0  0  0  0  0  0  0  0  0  0  0  0
   12.9673  -10.7250    0.0000 C   0  0  0  0  0  0  0  0  0  0  0  0
   13.6818  -11.1375    0.0000 C   0  0  0  0  0  0  0  0  0  0  0  0
   12.2528  -11.1375    0.0000 C   0  0  0  0  0  0  0  0  0  0  0  0
   12.2528  -11.9625    0.0000 C   0  0  0  0  0  0  0  0  0  0  0  0
   12.9673  -12.3750    0.0000 C   0  0  0  0  0  0  0  0  0  0  0  0
   13.6818  -11.9625    0.0000 C   0  0  0  0  0  0  0  0  0  0  0  0
   11.5384  -10.7250    0.0000 C   0  0  0  0  0  0  0  0  0  0  0  0
   10.8239  -11.1375    0.0000 C   0  0  0  0  0  0  0  0  0  0  0  0
   10.8239  -11.9625    0.0000 C   0  0  0  0  0  0  0  0  0  0  0  0
   11.5384  -12.3750    0.0000 C   0  0  0  0  0  0  0  0  0  0  0  0
   10.0972  -12.3822    0.0000 O   0  0  0  0  0  0  0  0  0  0  0  0
   15.1107   -8.6626    0.0000 O   0  0  0  0  0  0  0  0  0  0  0  0
   11.5384  -13.1999    0.0000 O   0  0  0  0  0  0  0  0  0  0  0  0
   12.2528  -10.3125    0.0000 C   0  0  0  0  0  0  0  0  0  0  0  0
   14.3963   -9.0750    0.0000 C   0  0  0  0  0  0  0  0  0  0  0  0
  1  2  1  0
  2  3  1  1
  3  4  1  0
  4  5  1  0
  1  5  1  0
  1  6  1  0
  6  7  1  0
  8  7  1  1
  8  9  1  0
  9  2  1  0
  8 10  1  0
 10 11  1  0
 11 12  1  0
 12 13  1  0
  9 13  1  6
 10 14  1  0
 14 15  1  0
 15 16  1  0
 16 17  1  0
 17 11  2  0
 16 18  2  0
  5 19  2  0
 17 20  1  0
 10 21  1  1
  1 22  1  1
M  END
$$$$
