 
     RDKit          2D

 35 38  0  0  0  0  0  0  0  0999 V2000
   15.8813  -20.1712    0.0000 C   0  0  0  0  0  0  0  0  0  0  0  0
   15.8813  -20.9962    0.0000 C   0  0  0  0  0  0  0  0  0  0  0  0
   16.5957  -21.4087    0.0000 C   0  0  0  0  0  0  0  0  0  0  0  0
   17.3102  -20.9962    0.0000 C   0  0  0  0  0  0  0  0  0  0  0  0
   17.3102  -20.1712    0.0000 C   0  0  0  0  0  0  0  0  0  0  0  0
   16.5957  -19.7587    0.0000 C   0  0  0  0  0  0  0  0  0  0  0  0
   16.5957  -18.9339    0.0000 F   0  0  0  0  0  0  0  0  0  0  0  0
   15.1668  -21.4087    0.0000 F   0  0  0  0  0  0  0  0  0  0  0  0
   15.1668  -19.7587    0.0000 S   0  0  0  0  0  0  0  0  0  0  0  0
   14.4623  -20.1656    0.0000 N   0  0  0  0  0  0  0  0  0  0  0  0
   13.7626  -19.7616    0.0000 C   0  0  0  0  0  0  0  0  0  0  0  0
   13.7625  -18.9339    0.0000 C   0  0  0  0  0  0  0  0  0  0  0  0
   13.0480  -18.5214    0.0000 C   0  0  0  0  0  0  0  0  0  0  0  0
   12.3336  -18.9340    0.0000 C   0  0  0  0  0  0  0  0  0  0  0  0
   12.3336  -19.7618    0.0000 C   0  0  0  0  0  0  0  0  0  0  0  0
   13.0481  -20.1742    0.0000 C   0  0  0  0  0  0  0  0  0  0  0  0
   13.0482  -20.9961    0.0000 F   0  0  0  0  0  0  0  0  0  0  0  0
   11.6206  -20.1735    0.0000 C   0  0  0  0  0  0  0  0  0  0  0  0
   10.9556  -19.6996    0.0000 N   0  0  0  0  0  0  0  0  0  0  0  0
   10.3017  -20.1862    0.0000 C   0  0  0  0  0  0  0  0  0  0  0  0
   10.5624  -20.9584    0.0000 S   0  0  0  0  0  0  0  0  0  0  0  0
   11.3774  -20.9491    0.0000 C   0  0  0  0  0  0  0  0  0  0  0  0
   11.8751  -21.6187    0.0000 C   0  0  0  0  0  0  0  0  0  0  0  0
   11.4507  -22.3195    0.0000 C   0  0  0  0  0  0  0  0  0  0  0  0
   11.8489  -23.0421    0.0000 C   0  0  0  0  0  0  0  0  0  0  0  0
   12.6737  -23.0585    0.0000 N   0  0  0  0  0  0  0  0  0  0  0  0
   13.0976  -22.3570    0.0000 C   0  0  0  0  0  0  0  0  0  0  0  0
   12.6995  -21.6344    0.0000 N   0  0  0  0  0  0  0  0  0  0  0  0
    9.5200  -19.9420    0.0000 C   0  0  0  0  0  0  0  0  0  0  0  0
    8.9269  -20.4880    0.0000 C   0  0  0  0  0  0  0  0  0  0  0  0
    9.3358  -19.1216    0.0000 C   0  0  0  0  0  0  0  0  0  0  0  0
    8.7231  -19.7284    0.0000 C   0  0  0  0  0  0  0  0  0  0  0  0
   13.9423  -22.3738    0.0000 N   0  0  0  0  0  0  0  0  0  0  0  0
   14.5835  -19.1754    0.0000 O   0  0  0  0  0  0  0  0  0  0  0  0
   15.7501  -19.1754    0.0000 O   0  0  0  0  0  0  0  0  0  0  0  0
  1  2  2  0
  2  3  1  0
  3  4  2  0
  4  5  1  0
  5  6  2  0
  1  6  1  0
  6  7  1  0
  2  8  1  0
  1  9  1  0
  9 10  1  0
 10 11  1  0
 11 12  2  0
 12 13  1  0
 13 14  2  0
 14 15  1  0
 15 16  2  0
 11 16  1  0
 16 17  1  0
 15 18  1  0
 18 19  1  0
 19 20  2  0
 20 21  1  0
 21 22  1  0
 18 22  2  0
 22 23  1  0
 23 24  2  0
 24 25  1  0
 25 26  2  0
 26 27  1  0
 27 28  2  0
 23 28  1  0
 20 29  1  0
 29 30  1  0
 29 31  1  0
 29 32  1  0
 27 33  1  0
  9 34  2  0
  9 35  2  0
M  END
$$$$
