
     RDKit          2D

 30 34  0  0  0  0  0  0  0  0999 V2000
    1.3140    4.4609    0.0000 S   0  0  0  0  0  0  0  0  0  0  0  0
   -3.2816   -1.6947    0.0000 O   0  0  0  0  0  0  0  0  0  0  0  0
   -0.5195   -2.5921    0.0000 O   0  0  0  0  0  0  0  0  0  0  0  0
   -1.8294   -1.9247    0.0000 N   0  0  0  0  0  0  0  0  0  0  0  0
    1.0590    2.3414    0.0000 N   0  0  0  0  0  0  0  0  0  0  0  0
    0.8292    3.7935    0.0000 N   0  0  0  0  0  0  0  0  0  0  0  0
    0.5492    0.7722    0.0000 N   0  0  0  0  0  0  0  0  0  0  0  0
   -2.6141   -3.0046    0.0000 C   0  0  0  0  0  0  0  0  0  0  0  0
   -1.8294   -3.2595    0.0000 C   0  0  0  0  0  0  0  0  0  0  0  0
   -2.6141   -2.1796    0.0000 C   0  0  0  0  0  0  0  0  0  0  0  0
   -1.3445   -2.5921    0.0000 C   0  0  0  0  0  0  0  0  0  0  0  0
    1.3140    3.1260    0.0000 C   0  0  0  0  0  0  0  0  0  0  0  0
    2.0987    3.3810    0.0000 C   0  0  0  0  0  0  0  0  0  0  0  0
    2.0987    4.2060    0.0000 C   0  0  0  0  0  0  0  0  0  0  0  0
   -3.2272   -3.5566    0.0000 C   0  0  0  0  0  0  0  0  0  0  0  0
   -1.6579   -4.0665    0.0000 C   0  0  0  0  0  0  0  0  0  0  0  0
   -1.5745   -1.1400    0.0000 C   0  0  0  0  0  0  0  0  0  0  0  0
    2.8132    2.9685    0.0000 C   0  0  0  0  0  0  0  0  0  0  0  0
    2.8132    4.6185    0.0000 C   0  0  0  0  0  0  0  0  0  0  0  0
    1.6112    1.7283    0.0000 C   0  0  0  0  0  0  0  0  0  0  0  0
    0.2521    2.1699    0.0000 C   0  0  0  0  0  0  0  0  0  0  0  0
   -3.0557   -4.3636    0.0000 C   0  0  0  0  0  0  0  0  0  0  0  0
   -2.2711   -4.6185    0.0000 C   0  0  0  0  0  0  0  0  0  0  0  0
    3.5276    3.3810    0.0000 C   0  0  0  0  0  0  0  0  0  0  0  0
    1.3562    0.9437    0.0000 C   0  0  0  0  0  0  0  0  0  0  0  0
   -0.0028    1.3853    0.0000 C   0  0  0  0  0  0  0  0  0  0  0  0
    3.5276    4.2060    0.0000 C   0  0  0  0  0  0  0  0  0  0  0  0
   -0.7676   -0.9685    0.0000 C   0  0  0  0  0  0  0  0  0  0  0  0
    0.2942   -0.0124    0.0000 C   0  0  0  0  0  0  0  0  0  0  0  0
   -0.5126   -0.1839    0.0000 C   0  0  0  0  0  0  0  0  0  0  0  0
  1  6  1  0
  1 14  1  0
  2 10  2  0
  3 11  2  0
  4 10  1  0
  4 11  1  0
  4 17  1  0
  5 12  1  0
  5 20  1  0
  5 21  1  0
  6 12  2  0
  7 25  1  0
  7 26  1  0
  7 29  1  0
  8  9  1  0
  8 10  1  0
  8 15  1  1
  9 11  1  0
  9 16  1  1
 12 13  1  0
 13 14  2  0
 13 18  1  0
 14 19  1  0
 15 22  1  0
 16 23  1  0
 17 28  1  0
 18 24  2  0
 19 27  2  0
 20 25  1  0
 21 26  1  0
 22 23  1  0
 24 27  1  0
 28 30  1  0
 29 30  1  0
M  END
$$$$
