
     RDKit          2D

 32 36  0  0  1  0  0  0  0  0999 V2000
   -0.4190   -3.1043    0.0000 C   0  0  0  0  0  0  0  0  0  0  0  0
    0.1127   -2.4736    0.0000 C   0  0  0  0  0  0  0  0  0  0  0  0
   -0.1675   -1.6977    0.0000 O   0  0  0  0  0  0  0  0  0  0  0  0
    0.9248   -2.6188    0.0000 C   0  0  0  0  0  0  0  0  0  0  0  0
    0.6955   -3.4113    0.0000 C   0  0  0  0  0  0  0  0  0  0  0  0
    1.3783   -3.8743    0.0000 C   0  0  0  0  0  0  0  0  0  0  0  0
    2.0297   -3.3680    0.0000 C   0  0  0  0  0  0  0  0  0  0  0  0
    1.7494   -2.5920    0.0000 C   0  0  0  0  0  0  0  0  0  0  0  0
    2.2812   -1.9613    0.0000 C   0  0  0  0  0  0  0  0  0  0  0  0
    3.0933   -2.1065    0.0000 C   0  0  0  0  0  0  0  0  0  0  0  0
    3.3736   -2.8825    0.0000 C   0  0  0  0  0  0  0  0  0  0  0  0
    4.1857   -3.0277    0.0000 C   0  0  0  0  0  0  0  0  0  0  0  0
    4.7175   -2.3970    0.0000 C   0  0  0  0  0  0  0  0  0  0  0  0
    5.5297   -2.5422    0.0000 C   0  0  0  0  0  0  0  0  0  0  0  0
    5.8100   -3.3181    0.0000 C   0  0  0  0  0  0  0  0  0  0  0  0
    6.6221   -3.4633    0.0000 O   0  0  0  0  0  0  0  0  0  0  0  0
    5.2781   -3.9488    0.0000 C   0  0  0  0  0  0  0  0  0  0  0  0
    4.4660   -3.8036    0.0000 C   0  0  0  0  0  0  0  0  0  0  0  0
    3.9342   -4.4343    0.0000 C   0  0  0  0  0  0  0  0  0  0  0  0
    3.1221   -4.2891    0.0000 C   0  0  0  0  0  0  0  0  0  0  0  0
    2.8418   -3.5132    0.0000 C   0  0  0  0  0  0  0  0  0  0  0  0
    3.6251   -1.4758    0.0000 C   0  0  0  0  0  0  0  0  0  0  0  0
    3.3448   -0.6999    0.0000 C   0  0  0  0  0  0  0  0  0  0  0  0
    3.8766   -0.0692    0.0000 C   0  0  0  0  0  0  0  0  0  0  0  0
    4.6888   -0.2144    0.0000 C   0  0  0  0  0  0  0  0  0  0  0  0
    4.9691   -0.9903    0.0000 C   0  0  0  0  0  0  0  0  0  0  0  0
    4.4372   -1.6210    0.0000 C   0  0  0  0  0  0  0  0  0  0  0  0
    5.2206    0.4162    0.0000 N   0  0  0  0  0  0  0  0  0  0  0  0
    4.9403    1.1921    0.0000 C   0  0  0  0  0  0  0  0  0  0  0  0
    6.0327    0.2710    0.0000 C   0  0  0  0  0  0  0  0  0  0  0  0
    1.3895   -1.8497    0.0000 C   0  0  0  0  0  0  0  0  0  0  0  0
    0.9843   -1.7960    0.0000 O   0  0  0  0  0  0  0  0  0  0  0  0
  1  2  1  0
  2  3  2  0
  4  2  1  0
  4  5  1  0
  5  6  1  0
  7  6  1  6
  7  8  1  0
  4  8  1  0
  8  9  1  0
  9 10  1  0
 10 11  1  0
 11 12  2  0
 12 13  1  0
 13 14  1  0
 14 15  1  0
 15 16  2  0
 15 17  1  0
 17 18  2  0
 12 18  1  0
 18 19  1  0
 19 20  1  0
 21 20  1  1
  7 21  1  0
 11 21  1  0
 10 22  1  6
 22 23  2  0
 23 24  1  0
 24 25  2  0
 25 26  1  0
 26 27  2  0
 22 27  1  0
 25 28  1  0
 28 29  1  0
 28 30  1  0
  8 31  1  6
  4 32  1  1
M  END
$$$$
