 
     RDKit          2D

 22 24  0  0  0  0  0  0  0  0999 V2000
   11.6738  -11.0137    0.0000 C   0  0  0  0  0  0  0  0  0  0  0  0
   11.6738  -11.8387    0.0000 C   0  0  0  0  0  0  0  0  0  0  0  0
   12.3750  -12.2512    0.0000 C   0  0  0  0  0  0  0  0  0  0  0  0
   12.3750  -10.6012    0.0000 C   0  0  0  0  0  0  0  0  0  0  0  0
   13.1175  -11.0137    0.0000 C   0  0  0  0  0  0  0  0  0  0  0  0
   13.1175  -11.8387    0.0000 C   0  0  0  0  0  0  0  0  0  0  0  0
   13.9013  -12.1275    0.0000 C   0  0  0  0  0  0  0  0  0  0  0  0
   14.3550  -11.4262    0.0000 C   0  0  0  0  0  0  0  0  0  0  0  0
   13.9013  -10.7662    0.0000 C   0  0  0  0  0  0  0  0  0  0  0  0
   15.1800  -11.4262    0.0000 C   0  0  0  0  0  0  0  0  0  0  0  0
   15.5925  -12.1687    0.0000 C   0  0  0  0  0  0  0  0  0  0  0  0
   16.4175  -12.1687    0.0000 N   0  0  0  0  0  0  0  0  0  0  0  0
   16.8300  -12.8700    0.0000 C   0  0  0  0  0  0  0  0  0  0  0  0
   16.8300  -11.4675    0.0000 C   0  0  0  0  0  0  0  0  0  0  0  0
   13.9013   -9.9412    0.0000 C   0  0  0  0  0  0  0  0  0  0  0  0
   14.6025   -9.5287    0.0000 C   0  0  0  0  0  0  0  0  0  0  0  0
   13.1588   -9.5287    0.0000 C   0  0  0  0  0  0  0  0  0  0  0  0
   15.3038   -9.9412    0.0000 C   0  0  0  0  0  0  0  0  0  0  0  0
   16.0050   -9.5287    0.0000 C   0  0  0  0  0  0  0  0  0  0  0  0
   16.0050   -8.7037    0.0000 C   0  0  0  0  0  0  0  0  0  0  0  0
   15.3038   -8.2912    0.0000 C   0  0  0  0  0  0  0  0  0  0  0  0
   14.6025   -8.7037    0.0000 N   0  0  0  0  0  0  0  0  0  0  0  0
 12 14  1  0
  2  3  2  0
  9 15  1  0
  3  6  1  0
 15 16  1  0
  5  6  2  0
 15 17  1  0
  6  7  1  0
  7  8  1  0
  8  9  2  0
  9  5  1  0
  5  4  1  0
 16 18  2  0
 18 19  1  0
 19 20  2  0
 20 21  1  0
 21 22  2  0
 22 16  1  0
  8 10  1  0
  4  1  2  0
 10 11  1  0
 11 12  1  0
 12 13  1  0
  1  2  1  0
M  END
$$$$
