 
     RDKit          2D

 32 34  0  0  0  0  0  0  0  0999 V2000
    6.8476  -12.0865    0.0000 C   0  0  0  0  0  0  0  0  0  0  0  0
    7.0951  -11.3027    0.0000 N   0  0  0  0  0  0  0  0  0  0  0  0
    7.9202  -11.3027    0.0000 C   0  0  0  0  0  0  0  0  0  0  0  0
    8.1677  -12.0865    0.0000 N   0  0  0  0  0  0  0  0  0  0  0  0
    7.5077  -12.5815    0.0000 C   0  0  0  0  0  0  0  0  0  0  0  0
    8.9514  -12.3340    0.0000 C   0  0  0  0  0  0  0  0  0  0  0  0
    8.9514  -13.1590    0.0000 C   0  0  0  0  0  0  0  0  0  0  0  0
    9.6527  -11.9215    0.0000 C   0  0  0  0  0  0  0  0  0  0  0  0
   10.3952  -12.3340    0.0000 C   0  0  0  0  0  0  0  0  0  0  0  0
   10.3952  -13.1590    0.0000 C   0  0  0  0  0  0  0  0  0  0  0  0
    9.6527  -13.5715    0.0000 C   0  0  0  0  0  0  0  0  0  0  0  0
    7.5077  -13.4065    0.0000 O   0  0  0  0  0  0  0  0  0  0  0  0
   11.0965  -13.5715    0.0000 C   0  0  0  0  0  0  0  0  0  0  0  0
   11.8390  -13.9840    0.0000 N   0  0  0  0  0  0  0  0  0  0  0  0
   11.0965  -11.9215    0.0000 C   0  0  0  0  0  0  0  0  0  0  0  0
   11.8390  -11.5090    0.0000 F   0  0  0  0  0  0  0  0  0  0  0  0
   11.5090  -12.6228    0.0000 F   0  0  0  0  0  0  0  0  0  0  0  0
   10.6840  -11.2202    0.0000 F   0  0  0  0  0  0  0  0  0  0  0  0
    8.4079  -10.6373    0.0000 S   0  0  0  0  0  0  0  0  0  0  0  0
    6.1332  -11.6740    0.0000 C   0  0  0  0  0  0  0  0  0  0  0  0
    6.3931  -12.7750    0.0000 C   0  0  0  0  0  0  0  0  0  0  0  0
    6.6074  -10.6373    0.0000 C   0  0  0  0  0  0  0  0  0  0  0  0
    6.9999   -9.9210    0.0000 C   0  0  0  0  0  0  0  0  0  0  0  0
    6.5708   -9.2576    0.0000 C   0  0  0  0  0  0  0  0  0  0  0  0
    5.7461   -9.2355    0.0000 C   0  0  0  0  0  0  0  0  0  0  0  0
    5.3541   -9.9525    0.0000 C   0  0  0  0  0  0  0  0  0  0  0  0
    5.7831  -10.6572    0.0000 C   0  0  0  0  0  0  0  0  0  0  0  0
    5.3338   -8.5186    0.0000 C   0  0  0  0  0  0  0  0  0  0  0  0
    4.4966   -8.5581    0.0000 N   0  0  0  0  0  0  0  0  0  0  0  0
    4.0420   -7.8503    0.0000 C   0  0  0  0  0  0  0  0  0  0  0  0
    5.7186   -7.8159    0.0000 O   0  0  0  0  0  0  0  0  0  0  0  0
    6.9795   -8.5304    0.0000 F   0  0  0  0  0  0  0  0  0  0  0  0
  1  2  1  0
  2  3  1  0
  3  4  1  0
  4  5  1  0
  1  5  1  0
  4  6  1  0
  7  6  2  0
  8  9  2  0
  9 10  1  0
 10 11  2  0
  7 11  1  0
  6  8  1  0
  5 12  2  0
 10 13  1  0
 13 14  3  0
  9 15  1  0
 15 16  1  0
 15 17  1  0
 15 18  1  0
  3 19  2  0
  1 20  1  0
  1 21  1  0
  2 22  1  0
 22 23  2  0
 23 24  1  0
 24 25  2  0
 25 26  1  0
 26 27  2  0
 22 27  1  0
 25 28  1  0
 28 29  1  0
 29 30  1  0
 28 31  2  0
 24 32  1  0
M  END
$$$$
