
     RDKit          2D

  9  9  0  0  1  0  0  0  0  0999 V2000
    1.2352    0.6294    0.0000 C   0  0  0  0  0  0  0  0  0  0  0  0
    0.9803   -0.1553    0.0000 C   0  0  0  0  0  0  0  0  0  0  0  0
    0.1553   -0.1553    0.0000 C   0  0  0  0  0  0  0  0  0  0  0  0
   -0.0997    0.6294    0.0000 N   0  0  0  0  0  0  0  0  0  0  0  0
    0.5678    1.1143    0.0000 C   0  0  0  0  0  0  0  0  0  0  0  0
    0.5678    1.9393    0.0000 C   0  0  0  0  0  0  0  0  0  0  0  0
   -0.1467    2.3518    0.0000 O   0  0  0  0  0  0  0  0  0  0  0  0
    1.2822    2.3518    0.0000 O   0  0  0  0  0  0  0  0  0  0  0  0
    1.4652   -0.8227    0.0000 O   0  0  0  0  0  0  0  0  0  0  0  0
  1  2  1  0
  2  3  1  0
  3  4  1  0
  4  5  1  0
  1  5  1  0
  5  6  1  6
  6  7  2  0
  6  8  1  0
  2  9  1  1
M  END
$$$$
