
     RDKit          2D

 31 34  0  0  0  0  0  0  0  0999 V2000
    7.9200   -9.6525    0.0000 N   0  0  0  0  0  0  0  0  0  0  0  0
    7.9200  -10.4775    0.0000 C   0  0  0  0  0  0  0  0  0  0  0  0
    8.6213  -10.8900    0.0000 N   0  0  0  0  0  0  0  0  0  0  0  0
    9.3638  -10.4775    0.0000 C   0  0  0  0  0  0  0  0  0  0  0  0
    9.3638   -9.6525    0.0000 C   0  0  0  0  0  0  0  0  0  0  0  0
    8.6213   -9.2400    0.0000 C   0  0  0  0  0  0  0  0  0  0  0  0
    8.6213   -8.4150    0.0000 N   0  0  0  0  0  0  0  0  0  0  0  0
   10.0649   -9.2400    0.0000 N   0  0  0  0  0  0  0  0  0  0  0  0
   10.0649  -10.8900    0.0000 N   0  0  0  0  0  0  0  0  0  0  0  0
   10.7663   -9.6525    0.0000 C   0  0  0  0  0  0  0  0  0  0  0  0
   11.4675   -9.2400    0.0000 O   0  0  0  0  0  0  0  0  0  0  0  0
   10.7663  -10.4775    0.0000 O   0  0  0  0  0  0  0  0  0  0  0  0
   12.1688   -9.6525    0.0000 C   0  0  0  0  0  0  0  0  0  0  0  0
   10.0649   -8.4150    0.0000 C   0  0  0  0  0  0  0  0  0  0  0  0
    7.2188  -10.8900    0.0000 C   0  0  0  0  0  0  0  0  0  0  0  0
    5.8988  -10.9313    0.0000 N   0  0  0  0  0  0  0  0  0  0  0  0
    6.1463  -11.6738    0.0000 C   0  0  0  0  0  0  0  0  0  0  0  0
    6.9713  -11.6738    0.0000 C   0  0  0  0  0  0  0  0  0  0  0  0
    6.5588  -10.3950    0.0000 N   0  0  0  0  0  0  0  0  0  0  0  0
    5.7750  -12.4163    0.0000 N   0  0  0  0  0  0  0  0  0  0  0  0
    6.1875  -13.1175    0.0000 C   0  0  0  0  0  0  0  0  0  0  0  0
    7.0125  -13.1175    0.0000 C   0  0  0  0  0  0  0  0  0  0  0  0
    7.4250  -12.3750    0.0000 C   0  0  0  0  0  0  0  0  0  0  0  0
    5.1975  -10.5188    0.0000 C   0  0  0  0  0  0  0  0  0  0  0  0
    4.4963  -10.9313    0.0000 C   0  0  0  0  0  0  0  0  0  0  0  0
    3.7950  -10.5188    0.0000 C   0  0  0  0  0  0  0  0  0  0  0  0
    3.0525  -10.9313    0.0000 C   0  0  0  0  0  0  0  0  0  0  0  0
    3.0525  -11.7563    0.0000 C   0  0  0  0  0  0  0  0  0  0  0  0
    3.7538  -12.1688    0.0000 C   0  0  0  0  0  0  0  0  0  0  0  0
    4.4963  -11.7563    0.0000 C   0  0  0  0  0  0  0  0  0  0  0  0
    5.1975  -12.1688    0.0000 F   0  0  0  0  0  0  0  0  0  0  0  0
  1  2  2  0
  2  3  1  0
  3  4  2  0
  4  5  1  0
  5  6  2  0
  1  6  1  0
  6  7  1  0
  5  8  1  0
  4  9  1  0
  8 10  1  0
 10 11  1  0
 10 12  2  0
 11 13  1  0
  8 14  1  0
  2 15  1  0
 16 17  1  0
 17 18  2  0
 18 15  1  0
 15 19  2  0
 16 19  1  0
 17 20  1  0
 20 21  2  0
 21 22  1  0
 22 23  2  0
 18 23  1  0
 24 16  1  0
 24 25  1  0
 25 26  2  0
 26 27  1  0
 27 28  2  0
 28 29  1  0
 29 30  2  0
 25 30  1  0
 30 31  1  0
M  END
$$$$
