
     RDKit          2D

 28 31  0  0  0  0  0  0  0  0999 V2000
    7.9361   -1.3437    0.0000 C   0  0  0  0  0  0  0  0  0  0  0  0
    3.9503    0.0961    0.0000 C   0  0  0  0  0  0  0  0  0  0  0  0
    6.4662    0.4982    0.0000 C   0  0  0  0  0  0  0  0  0  0  0  0
    3.9215   -2.0864    0.0000 C   0  0  0  0  0  0  0  0  0  0  0  0
    4.7336   -1.9412    0.0000 C   0  0  0  0  0  0  0  0  0  0  0  0
    2.3260   -0.1942    0.0000 C   0  0  0  0  0  0  0  0  0  0  0  0
    3.1381   -0.0490    0.0000 C   0  0  0  0  0  0  0  0  0  0  0  0
    6.4773   -1.5264    0.0000 C   0  0  0  0  0  0  0  0  0  0  0  0
    2.5775   -1.6009    0.0000 C   0  0  0  0  0  0  0  0  0  0  0  0
    5.5745    0.3865    0.0000 C   0  0  0  0  0  0  0  0  0  0  0  0
    8.2748   -0.7564    0.0000 C   0  0  0  0  0  0  0  0  0  0  0  0
    7.1602   -1.0634    0.0000 C   0  0  0  0  0  0  0  0  0  0  0  0
    3.3897   -1.4557    0.0000 C   0  0  0  0  0  0  0  0  0  0  0  0
    2.0457   -0.9702    0.0000 C   0  0  0  0  0  0  0  0  0  0  0  0
    5.0139   -1.1652    0.0000 C   0  0  0  0  0  0  0  0  0  0  0  0
    5.8260   -1.0200    0.0000 C   0  0  0  0  0  0  0  0  0  0  0  0
    4.7624    0.2413    0.0000 C   0  0  0  0  0  0  0  0  0  0  0  0
    7.7430   -0.1257    0.0000 C   0  0  0  0  0  0  0  0  0  0  0  0
    3.6700   -0.6797    0.0000 C   0  0  0  0  0  0  0  0  0  0  0  0
    6.1063   -0.2441    0.0000 C   0  0  0  0  0  0  0  0  0  0  0  0
    4.4821   -0.5345    0.0000 C   0  0  0  0  0  0  0  0  0  0  0  0
    6.9309   -0.2709    0.0000 C   0  0  0  0  0  0  0  0  0  0  0  0
    4.4225    0.2882    0.0000 F   0  0  0  0  0  0  0  0  0  0  0  0
    9.0869   -0.6112    0.0000 O   0  0  0  0  0  0  0  0  0  0  0  0
    1.2336   -1.1154    0.0000 O   0  0  0  0  0  0  0  0  0  0  0  0
    4.2306    0.8720    0.0000 O   0  0  0  0  0  0  0  0  0  0  0  0
    8.0233    0.6501    0.0000 O   0  0  0  0  0  0  0  0  0  0  0  0
    6.8713    0.5519    0.0000 O   0  0  0  0  0  0  0  0  0  0  0  0
  5  4  1  0
  7  6  2  0
 12  1  2  3
 12  8  1  0
 13  4  1  0
 13  9  2  0
 14  6  1  0
 14  9  1  0
 15  5  1  6
 16  8  1  1
 16 15  1  0
 17 10  1  0
 18 11  1  0
 19  2  1  1
 19  7  1  0
 19 13  1  0
 20  3  1  1
 20 10  1  0
 20 16  1  0
 21 15  1  0
 21 17  1  0
 21 19  1  0
 22 12  1  0
 22 18  1  0
 22 20  1  0
 21 23  1  6
 24 11  1  0
 25 14  2  0
 17 26  1  1
 27 18  2  0
 22 28  1  6
M  END
$$$$
