
     RDKit          2D

 35 39  0  0  1  0  0  0  0  0999 V2000
   -4.2483    5.9646    0.0000 C   0  0  0  0  0  0  0  0  0  0  0  0
    2.7845    2.3479    0.0000 C   0  0  0  0  0  0  0  0  0  0  0  0
   -0.0734    2.3479    0.0000 C   0  0  0  0  0  0  0  0  0  0  0  0
   -3.4413    5.7931    0.0000 C   0  0  0  0  0  0  0  0  0  0  0  0
   -2.6344    5.6215    0.0000 C   0  0  0  0  0  0  0  0  0  0  0  0
    4.9279    3.5854    0.0000 C   0  0  0  0  0  0  0  0  0  0  0  0
    4.9279    4.4104    0.0000 C   0  0  0  0  0  0  0  0  0  0  0  0
   -4.1199    4.7124    0.0000 C   0  0  0  0  0  0  0  0  0  0  0  0
   -4.5324    3.9979    0.0000 C   0  0  0  0  0  0  0  0  0  0  0  0
    4.2135    3.1729    0.0000 C   0  0  0  0  0  0  0  0  0  0  0  0
    4.2135    4.8229    0.0000 C   0  0  0  0  0  0  0  0  0  0  0  0
   -3.2949    4.7124    0.0000 C   0  0  0  0  0  0  0  0  0  0  0  0
   -1.8274    5.4500    0.0000 C   0  0  0  0  0  0  0  0  0  0  0  0
   -3.2949    3.2835    0.0000 C   0  0  0  0  0  0  0  0  0  0  0  0
    1.3556    4.8229    0.0000 C   0  0  0  0  0  0  0  0  0  0  0  0
    2.7845    3.1729    0.0000 C   0  0  0  0  0  0  0  0  0  0  0  0
   -4.1199    3.2835    0.0000 C   0  0  0  0  0  0  0  0  0  0  0  0
    3.4990    3.5854    0.0000 C   0  0  0  0  0  0  0  0  0  0  0  0
    3.4990    4.4104    0.0000 C   0  0  0  0  0  0  0  0  0  0  0  0
    2.0701    4.4104    0.0000 C   0  0  0  0  0  0  0  0  0  0  0  0
   -0.7878    4.4104    0.0000 C   0  0  0  0  0  0  0  0  0  0  0  0
   -0.7878    3.5854    0.0000 C   0  0  0  0  0  0  0  0  0  0  0  0
   -0.0734    4.8229    0.0000 C   0  0  0  0  0  0  0  0  0  0  0  0
   -2.0574    3.9979    0.0000 C   0  0  0  0  0  0  0  0  0  0  0  0
    0.6411    3.5854    0.0000 C   0  0  0  0  0  0  0  0  0  0  0  0
   -4.5324    2.5690    0.0000 N   0  0  0  0  0  0  0  0  0  0  0  0
    2.0701    3.5854    0.0000 N   0  0  0  0  0  0  0  0  0  0  0  0
    2.7845    4.8229    0.0000 N   0  0  0  0  0  0  0  0  0  0  0  0
   -1.5724    3.3305    0.0000 N   0  0  0  0  0  0  0  0  0  0  0  0
   -0.0734    3.1729    0.0000 N   0  0  0  0  0  0  0  0  0  0  0  0
   -2.8824    3.9979    0.0000 N   0  0  0  0  0  0  0  0  0  0  0  0
   -1.5724    4.6654    0.0000 N   0  0  0  0  0  0  0  0  0  0  0  0
    0.6411    4.4104    0.0000 N   0  0  0  0  0  0  0  0  0  0  0  0
   -0.0734    5.6479    0.0000 O   0  0  0  0  0  0  0  0  0  0  0  0
    1.3556    3.1729    0.0000 O   0  0  0  0  0  0  0  0  0  0  0  0
  4  1  1  0
  5  4  3  0
  7  6  2  0
  9  8  1  0
 10  6  1  0
 11  7  1  0
 12  8  1  0
 13  5  1  0
 16  2  1  0
 17  9  1  0
 17 14  1  0
 18 10  2  0
 18 16  1  0
 19 11  2  0
 19 18  1  0
 20 15  1  0
 22 21  2  0
 23 21  1  0
 17 26  1  6
 27 16  2  0
 27 20  1  0
 28 19  1  0
 28 20  2  0
 29 22  1  0
 29 24  2  0
 30  3  1  0
 30 22  1  0
 30 25  1  0
 31 12  1  0
 31 14  1  0
 31 24  1  0
 32 13  1  0
 32 21  1  0
 32 24  1  0
 33 15  1  0
 33 23  1  0
 33 25  1  0
 34 23  2  0
 35 25  2  0
M  END
$$$$
