
     RDKit          2D

 34 37  0  0  0  0  0  0  0  0999 V2000
   -4.6010   -1.0247    0.0000 C   0  0  0  0  0  0  0  0  0  0  0  0
   -4.6010   -1.8613    0.0000 C   0  0  0  0  0  0  0  0  0  0  0  0
   -3.8899   -2.2795    0.0000 C   0  0  0  0  0  0  0  0  0  0  0  0
   -3.1788   -1.8613    0.0000 C   0  0  0  0  0  0  0  0  0  0  0  0
   -3.1788   -1.0247    0.0000 C   0  0  0  0  0  0  0  0  0  0  0  0
   -3.8899   -0.6065    0.0000 C   0  0  0  0  0  0  0  0  0  0  0  0
   -2.4677   -2.2795    0.0000 C   0  0  0  0  0  0  0  0  0  0  0  0
   -1.7567   -1.8613    0.0000 C   0  0  0  0  0  0  0  0  0  0  0  0
   -1.7567   -1.0247    0.0000 C   0  0  0  0  0  0  0  0  0  0  0  0
   -2.4677   -0.6065    0.0000 C   0  0  0  0  0  0  0  0  0  0  0  0
   -1.0456   -0.6065    0.0000 C   0  0  0  0  0  0  0  0  0  0  0  0
   -1.0456    0.1882    0.0000 C   0  0  0  0  0  0  0  0  0  0  0  0
   -1.7567    0.6065    0.0000 C   0  0  0  0  0  0  0  0  0  0  0  0
   -2.4677    0.1882    0.0000 C   0  0  0  0  0  0  0  0  0  0  0  0
    0.3764   -0.6065    0.0000 C   0  0  0  0  0  0  0  0  0  0  0  0
    0.3764    0.1882    0.0000 C   0  0  0  0  0  0  0  0  0  0  0  0
   -0.3346    0.6065    0.0000 C   0  0  0  0  0  0  0  0  0  0  0  0
   -3.1788   -0.1882    0.0000 C   0  0  0  0  0  0  0  0  0  0  0  0
   -1.0875   -2.2377    0.0000 O   0  0  0  0  0  0  0  0  0  0  0  0
   -1.0456    1.0247    0.0000 C   0  0  0  0  0  0  0  0  0  0  0  0
   -0.3346    1.4430    0.0000 C   0  0  0  0  0  0  0  0  0  0  0  0
   -5.3538   -2.2795    0.0000 O   0  0  0  0  0  0  0  0  0  0  0  0
   -1.0456    1.8613    0.0000 C   0  0  0  0  0  0  0  0  0  0  0  0
    0.3764    1.8613    0.0000 C   0  0  0  0  0  0  0  0  0  0  0  0
    1.0875    1.4430    0.0000 C   0  0  0  0  0  0  0  0  0  0  0  0
    1.7985    1.8613    0.0000 C   0  0  0  0  0  0  0  0  0  0  0  0
    2.5096    1.4430    0.0000 N   0  0  0  0  0  0  0  0  0  0  0  0
    3.2206    1.8613    0.0000 C   0  0  0  0  0  0  0  0  0  0  0  0
    3.9317    1.4430    0.0000 C   0  0  0  0  0  0  0  0  0  0  0  0
    4.6427    1.8613    0.0000 S   0  0  0  0  0  0  0  0  0  0  0  0
    1.7985    2.6559    0.0000 O   0  0  0  0  0  0  0  0  0  0  0  0
    5.3538    2.2795    0.0000 O   0  0  0  0  0  0  0  0  0  0  0  0
    4.2245    2.5723    0.0000 O   0  0  0  0  0  0  0  0  0  0  0  0
    5.0610    1.1502    0.0000 O   0  0  0  0  0  0  0  0  0  0  0  0
  1  2  1  0
  2  3  1  0
  4  3  1  6
  4  5  1  0
  5  6  1  0
  1  6  1  0
  4  7  1  0
  7  8  1  0
  9  8  1  6
  9 10  1  0
  5 10  1  0
  9 11  1  0
 11 12  1  0
 12 13  1  0
 13 14  1  0
 10 14  1  1
 11 15  1  1
 15 16  1  0
 17 16  1  1
 12 17  1  0
  5 18  1  1
  8 19  1  1
 12 20  1  1
 17 21  1  0
  2 22  1  6
 21 23  1  6
 21 24  1  0
 24 25  1  0
 25 26  1  0
 26 27  1  0
 27 28  1  0
 28 29  1  0
 29 30  1  0
 26 31  2  0
 30 32  1  0
 30 33  2  0
 30 34  2  0
M  END
$$$$
