3781
     RDKit          2D

 20 22  0  0  1  0  0  0  0  0999 V2000
    3.6959   -1.9666    0.0000 S   0  0  0  0  0  0  0  0  0  0  0  0
    3.6959   -0.3823    0.0000 N   0  0  0  0  0  0  0  0  0  0  0  0
    4.3820    1.5979    0.0000 N   0  0  0  0  0  0  0  0  0  0  0  0
    5.0900   -0.3549    0.0000 N   0  0  0  0  0  0  0  0  0  0  0  0
    4.3820    0.8058    0.0000 C   0  0  0  0  0  0  0  0  0  0  0  0
    3.6959    0.4097    0.0000 C   0  0  0  0  0  0  0  0  0  0  0  0
    3.0100   -0.7784    0.0000 C   0  0  0  0  0  0  0  0  0  0  0  0
    5.0680    0.4097    0.0000 C   0  0  0  0  0  0  0  0  0  0  0  0
    4.3820   -0.7784    0.0000 C   0  0  0  0  0  0  0  0  0  0  0  0
    3.0100   -1.5705    0.0000 C   0  0  0  0  0  0  0  0  0  0  0  0
    4.3820   -1.5705    0.0000 C   0  0  0  0  0  0  0  0  0  0  0  0
    5.0680    1.9939    0.0000 C   0  0  0  0  0  0  0  0  0  0  0  0
    3.6959    1.9939    0.0000 C   0  0  0  0  0  0  0  0  0  0  0  0
    2.3019   -0.3549    0.0000 C   0  0  0  0  0  0  0  0  0  0  0  0
    2.3019   -1.9939    0.0000 C   0  0  0  0  0  0  0  0  0  0  0  0
    5.0900   -1.9939    0.0000 C   0  0  0  0  0  0  0  0  0  0  0  0
    1.5842   -0.7619    0.0000 C   0  0  0  0  0  0  0  0  0  0  0  0
    1.5842   -1.5870    0.0000 C   0  0  0  0  0  0  0  0  0  0  0  0
    5.8078   -0.7619    0.0000 C   0  0  0  0  0  0  0  0  0  0  0  0
    5.8078   -1.5870    0.0000 C   0  0  0  0  0  0  0  0  0  0  0  0
  1 10  1  0
  1 11  1  0
  2  6  1  0
  2  7  1  0
  2  9  1  0
  3  5  1  0
  3 12  1  0
  3 13  1  0
  4  9  1  0
  4 19  2  0
  5  6  1  0
  5  8  1  0
  7 10  2  0
  7 14  1  0
  9 11  2  0
 10 15  1  0
 11 16  1  0
 14 17  2  0
 15 18  2  0
 16 20  2  0
 17 18  1  0
 19 20  1  0
M  END
$$$$
