 
     RDKit          2D

 18 19  0  0  1  0  0  0  0  0999 V2000
   12.2919  -11.1782    0.0000 C   0  0  0  0  0  0  0  0  0  0  0  0
   12.2919  -12.0032    0.0000 C   0  0  0  0  0  0  0  0  0  0  0  0
   12.9931  -12.4156    0.0000 C   0  0  0  0  0  0  0  0  0  0  0  0
   13.7356  -12.0032    0.0000 C   0  0  0  0  0  0  0  0  0  0  0  0
   13.7356  -11.1782    0.0000 C   0  0  0  0  0  0  0  0  0  0  0  0
   12.9931  -10.7657    0.0000 C   0  0  0  0  0  0  0  0  0  0  0  0
   14.5605  -12.0032    0.0000 C   0  0  0  0  0  0  0  0  0  0  0  0
   13.7356  -13.4468    0.0000 C   0  0  0  0  0  0  0  0  0  0  0  0
   14.5605  -13.4468    0.0000 C   0  0  0  0  0  0  0  0  0  0  0  0
   14.1481  -12.7044    0.0000 C   0  0  0  0  0  0  0  0  0  0  0  0
   14.9730  -14.1481    0.0000 C   0  0  0  0  0  0  0  0  0  0  0  0
   14.5605  -11.1782    0.0000 O   0  0  0  0  0  0  0  0  0  0  0  0
   15.3855  -12.0032    0.0000 N   0  0  0  0  0  0  0  0  0  0  0  0
   15.7979  -11.3019    0.0000 C   0  0  0  0  0  0  0  0  0  0  0  0
   15.7979  -12.7044    0.0000 C   0  0  0  0  0  0  0  0  0  0  0  0
   16.6229  -12.7044    0.0000 C   0  0  0  0  0  0  0  0  0  0  0  0
   16.6229  -11.3019    0.0000 C   0  0  0  0  0  0  0  0  0  0  0  0
   15.7979  -14.1481    0.0000 N   0  0  0  0  0  0  0  0  0  0  0  0
  8 10  1  0
 10  9  1  0
  3  4  1  0
  9 11  1  6
 10  4  1  0
 10  7  1  6
  4  5  2  0
  7 12  2  0
  5  6  1  0
  7 13  1  0
  6  1  2  0
 13 14  1  0
 13 15  1  0
 15 16  1  0
  1  2  1  0
 14 17  1  0
  2  3  2  0
 11 18  1  0
  8  9  1  0
M  END
$$$$
