
     RDKit          2D

 37 37  0  0  0  0  0  0  0  0999 V2000
    5.1521   -1.3156    0.0000 C   0  0  0  0  0  0  0  0  0  0  0  0
    4.3594   -1.0868    0.0000 C   0  0  0  0  0  0  0  0  0  0  0  0
    1.5852   -1.7733    0.0000 C   0  0  0  0  0  0  0  0  0  0  0  0
    1.9815   -0.4004    0.0000 C   0  0  0  0  0  0  0  0  0  0  0  0
    2.3779   -2.0021    0.0000 C   0  0  0  0  0  0  0  0  0  0  0  0
    2.7742   -0.6292    0.0000 C   0  0  0  0  0  0  0  0  0  0  0  0
   -1.7834   -0.0572    0.0000 C   0  0  0  0  0  0  0  0  0  0  0  0
   -2.3779   -0.6292    0.0000 C   0  0  0  0  0  0  0  0  0  0  0  0
    0.5944   -0.7436    0.0000 C   0  0  0  0  0  0  0  0  0  0  0  0
   -0.3963    0.2860    0.0000 C   0  0  0  0  0  0  0  0  0  0  0  0
   -0.7926   -1.0868    0.0000 C   0  0  0  0  0  0  0  0  0  0  0  0
   -3.7650   -0.9724    0.0000 C   0  0  0  0  0  0  0  0  0  0  0  0
   -3.3686    0.4004    0.0000 C   0  0  0  0  0  0  0  0  0  0  0  0
    0.7926    1.4300    0.0000 C   0  0  0  0  0  0  0  0  0  0  0  0
    1.7834    0.4004    0.0000 C   0  0  0  0  0  0  0  0  0  0  0  0
    1.3871   -0.9724    0.0000 C   0  0  0  0  0  0  0  0  0  0  0  0
    0.3963    0.0572    0.0000 C   0  0  0  0  0  0  0  0  0  0  0  0
    2.9723   -1.4300    0.0000 C   0  0  0  0  0  0  0  0  0  0  0  0
   -1.3871   -1.6589    0.0000 C   0  0  0  0  0  0  0  0  0  0  0  0
   -4.5576   -0.7436    0.0000 C   0  0  0  0  0  0  0  0  0  0  0  0
   -2.7742    0.9724    0.0000 C   0  0  0  0  0  0  0  0  0  0  0  0
    0.0000    1.6589    0.0000 C   0  0  0  0  0  0  0  0  0  0  0  0
    2.3779    0.9724    0.0000 C   0  0  0  0  0  0  0  0  0  0  0  0
   -0.9907   -0.2860    0.0000 N   0  0  0  0  0  0  0  0  0  0  0  0
   -3.1705   -0.4004    0.0000 N   0  0  0  0  0  0  0  0  0  0  0  0
    0.9907    0.6292    0.0000 N   0  0  0  0  0  0  0  0  0  0  0  0
   -1.1889   -2.4597    0.0000 O   0  0  0  0  0  0  0  0  0  0  0  0
   -2.1797   -1.4300    0.0000 O   0  0  0  0  0  0  0  0  0  0  0  0
   -5.1521   -1.3156    0.0000 O   0  0  0  0  0  0  0  0  0  0  0  0
   -4.7558    0.0572    0.0000 O   0  0  0  0  0  0  0  0  0  0  0  0
   -2.9723    1.7733    0.0000 O   0  0  0  0  0  0  0  0  0  0  0  0
   -1.9815    0.7436    0.0000 O   0  0  0  0  0  0  0  0  0  0  0  0
   -0.5944    1.0868    0.0000 O   0  0  0  0  0  0  0  0  0  0  0  0
   -0.1981    2.4597    0.0000 O   0  0  0  0  0  0  0  0  0  0  0  0
    2.1797    1.7733    0.0000 O   0  0  0  0  0  0  0  0  0  0  0  0
    3.1705    0.7436    0.0000 O   0  0  0  0  0  0  0  0  0  0  0  0
    3.7650   -1.6589    0.0000 O   0  0  0  0  0  0  0  0  0  0  0  0
  2  1  1  0
  5  3  2  0
  6  4  1  0
  8  7  1  0
 16  3  1  0
 16  4  2  0
 16  9  1  0
 17  9  1  1
 17 10  1  0
 18  5  1  0
 18  6  2  0
 19 11  1  0
 20 12  1  0
 21 13  1  0
 22 14  1  0
 23 15  1  0
 24  7  1  0
 24 10  1  0
 24 11  1  0
 25  8  1  0
 25 12  1  0
 25 13  1  0
 26 14  1  0
 26 15  1  0
 17 26  1  0
 27 19  2  0
 28 19  1  0
 29 20  2  0
 30 20  1  0
 31 21  2  0
 32 21  1  0
 33 22  2  0
 34 22  1  0
 35 23  2  0
 36 23  1  0
 37  2  1  0
 37 18  1  0
M  CHG  3  28  -1  30  -1  32  -1
M  END
$$$$
