5281613
     RDKit          2D

 43 47  0  0  1  0  0  0  0  0999 V2000
    9.5685    0.8328    0.0000 O   0  0  0  0  0  0  0  0  0  0  0  0
   11.7230   -2.0465    0.0000 O   0  0  0  0  0  0  0  0  0  0  0  0
   11.0038   -0.8118    0.0000 O   0  0  0  0  0  0  0  0  0  0  0  0
   11.7136    0.4285    0.0000 O   0  0  0  0  0  0  0  0  0  0  0  0
   11.7072    2.0785    0.0000 O   0  0  0  0  0  0  0  0  0  0  0  0
    8.8493    2.0675    0.0000 O   0  0  0  0  0  0  0  0  0  0  0  0
   10.2751    2.8980    0.0000 O   0  0  0  0  0  0  0  0  0  0  0  0
    9.5780   -1.6423    0.0000 O   0  0  0  0  0  0  0  0  0  0  0  0
    9.5845   -3.2923    0.0000 O   0  0  0  0  0  0  0  0  0  0  0  0
   11.0165   -4.1118    0.0000 O   0  0  0  0  0  0  0  0  0  0  0  0
    5.9369    2.0475    0.0000 O   0  0  0  0  0  0  0  0  0  0  0  0
    7.3794   -0.4560    0.0000 O   0  0  0  0  0  0  0  0  0  0  0  0
    5.9369   -0.4274    0.0000 O   0  0  0  0  0  0  0  0  0  0  0  0
    2.3645    3.2850    0.0000 O   0  0  0  0  0  0  0  0  0  0  0  0
    3.7935    4.1100    0.0000 O   0  0  0  0  0  0  0  0  0  0  0  0
   10.2846    0.4230    0.0000 C   0  0  0  0  0  0  0  0  0  0  0  0
   10.9974    0.8382    0.0000 C   0  0  0  0  0  0  0  0  0  0  0  0
   10.9943    1.6632    0.0000 C   0  0  0  0  0  0  0  0  0  0  0  0
   10.2782    2.0730    0.0000 C   0  0  0  0  0  0  0  0  0  0  0  0
   10.2941   -2.0520    0.0000 C   0  0  0  0  0  0  0  0  0  0  0  0
   11.0070   -1.6368    0.0000 C   0  0  0  0  0  0  0  0  0  0  0  0
   10.2973   -2.8771    0.0000 C   0  0  0  0  0  0  0  0  0  0  0  0
   11.0134   -3.2868    0.0000 C   0  0  0  0  0  0  0  0  0  0  0  0
    9.5653    1.6578    0.0000 C   0  0  0  0  0  0  0  0  0  0  0  0
   11.7263   -2.8715    0.0000 C   0  0  0  0  0  0  0  0  0  0  0  0
   10.2878   -0.4020    0.0000 C   0  0  0  0  0  0  0  0  0  0  0  0
   12.4423   -3.2813    0.0000 C   0  0  0  0  0  0  0  0  0  0  0  0
    8.1364    1.6522    0.0000 C   0  0  0  0  0  0  0  0  0  0  0  0
    7.3889    2.0761    0.0000 C   0  0  0  0  0  0  0  0  0  0  0  0
    8.1364    0.7928    0.0000 C   0  0  0  0  0  0  0  0  0  0  0  0
    6.6514    1.6350    0.0000 C   0  0  0  0  0  0  0  0  0  0  0  0
    7.3889    0.3689    0.0000 C   0  0  0  0  0  0  0  0  0  0  0  0
    6.6514    0.8101    0.0000 C   0  0  0  0  0  0  0  0  0  0  0  0
    5.9369    0.3976    0.0000 C   0  0  0  0  0  0  0  0  0  0  0  0
    5.2224    1.6350    0.0000 C   0  0  0  0  0  0  0  0  0  0  0  0
    5.2224    0.8101    0.0000 C   0  0  0  0  0  0  0  0  0  0  0  0
    4.5079    2.0475    0.0000 C   0  0  0  0  0  0  0  0  0  0  0  0
    4.5079    2.8725    0.0000 C   0  0  0  0  0  0  0  0  0  0  0  0
    3.7935    1.6350    0.0000 C   0  0  0  0  0  0  0  0  0  0  0  0
    3.7935    3.2850    0.0000 C   0  0  0  0  0  0  0  0  0  0  0  0
    3.0789    2.0475    0.0000 C   0  0  0  0  0  0  0  0  0  0  0  0
    3.0789    2.8725    0.0000 C   0  0  0  0  0  0  0  0  0  0  0  0
    1.6500    2.8725    0.0000 C   0  0  0  0  0  0  0  0  0  0  0  0
  1 16  1  0
  1 24  1  0
  2 21  1  0
  2 25  1  0
 21  3  1  6
  3 26  1  0
 17  4  1  6
 18  5  1  1
 24  6  1  1
  6 28  1  0
 19  7  1  6
 20  8  1  1
 22  9  1  1
 23 10  1  6
 11 31  1  0
 11 35  1  0
 12 32  1  0
 13 34  2  0
 14 42  1  0
 14 43  1  0
 15 40  1  0
 16 17  1  0
 16 26  1  1
 17 18  1  0
 18 19  1  0
 19 24  1  0
 20 21  1  0
 20 22  1  0
 22 23  1  0
 23 25  1  0
 25 27  1  1
 28 29  1  0
 28 30  2  0
 29 31  2  0
 30 32  1  0
 31 33  1  0
 32 33  2  0
 33 34  1  0
 34 36  1  0
 35 36  2  0
 35 37  1  0
 37 38  2  0
 37 39  1  0
 38 40  1  0
 39 41  2  0
 40 42  2  0
 41 42  1  0
M  END
$$$$
