
     RDKit          2D

 24 26  0  0  0  0  0  0  0  0999 V2000
    4.4222   -3.3243    0.0000 C   0  0  0  0  0  0  0  0  0  0  0  0
    8.1567   -3.3243    0.0000 C   0  0  0  0  0  0  0  0  0  0  0  0
    5.2426   -3.4105    0.0000 C   0  0  0  0  0  0  0  0  0  0  0  0
    4.0866   -2.5706    0.0000 C   0  0  0  0  0  0  0  0  0  0  0  0
    8.4923   -2.5706    0.0000 C   0  0  0  0  0  0  0  0  0  0  0  0
    7.3362   -3.4105    0.0000 C   0  0  0  0  0  0  0  0  0  0  0  0
    5.7276   -2.7431    0.0000 C   0  0  0  0  0  0  0  0  0  0  0  0
    4.5715   -1.9032    0.0000 C   0  0  0  0  0  0  0  0  0  0  0  0
    8.0073   -1.9032    0.0000 C   0  0  0  0  0  0  0  0  0  0  0  0
    6.8513   -2.7431    0.0000 C   0  0  0  0  0  0  0  0  0  0  0  0
    5.5750    1.1850    0.0000 C   0  0  0  0  0  0  0  0  0  0  0  0
    7.0039    1.1850    0.0000 C   0  0  0  0  0  0  0  0  0  0  0  0
    5.5750    2.0100    0.0000 C   0  0  0  0  0  0  0  0  0  0  0  0
    7.0039    2.0100    0.0000 C   0  0  0  0  0  0  0  0  0  0  0  0
    5.3920   -1.9894    0.0000 C   0  0  0  0  0  0  0  0  0  0  0  0
    7.1868   -1.9894    0.0000 C   0  0  0  0  0  0  0  0  0  0  0  0
    5.8769   -1.3220    0.0000 C   0  0  0  0  0  0  0  0  0  0  0  0
    6.7019   -1.3220    0.0000 C   0  0  0  0  0  0  0  0  0  0  0  0
    6.2894   -0.0524    0.0000 C   0  0  0  0  0  0  0  0  0  0  0  0
    5.6220   -0.5374    0.0000 N   0  0  0  0  0  0  0  0  0  0  0  0
    6.2894    0.7725    0.0000 N   0  0  0  0  0  0  0  0  0  0  0  0
    4.8605    2.4225    0.0000 O   0  0  0  0  0  0  0  0  0  0  0  0
    7.7184    2.4225    0.0000 O   0  0  0  0  0  0  0  0  0  0  0  0
    6.9569   -0.5374    0.0000 O   0  0  0  0  0  0  0  0  0  0  0  0
  3  1  2  0
  4  1  1  0
  5  2  2  0
  6  2  1  0
  7  3  1  0
  8  4  2  0
  9  5  1  0
 10  6  2  0
 13 11  1  0
 14 12  1  0
 15  7  2  0
 15  8  1  0
 16  9  2  0
 16 10  1  0
 17 15  1  0
 18 16  1  0
 18 17  2  0
 20 17  1  0
 20 19  2  0
 21 11  1  0
 21 12  1  0
 21 19  1  0
 22 13  1  0
 23 14  1  0
 24 18  1  0
 24 19  1  0
M  END
$$$$
