
     RDKit          2D

 52 60  0  0  0  0  0  0  0  0999 V2000
   -5.7798    5.2154    0.0000 C   0  0  0  0  0  0  0  0  0  0  0  0
   -6.2990    4.5742    0.0000 C   0  0  0  0  0  0  0  0  0  0  0  0
   -5.8497    3.8823    0.0000 O   0  0  0  0  0  0  0  0  0  0  0  0
   -5.0528    4.0959    0.0000 C   0  0  0  0  0  0  0  0  0  0  0  0
   -5.0097    4.9197    0.0000 C   0  0  0  0  0  0  0  0  0  0  0  0
   -5.9934    6.0123    0.0000 O   0  0  0  0  0  0  0  0  0  0  0  0
   -5.4100    6.5956    0.0000 C   0  0  0  0  0  0  0  0  0  0  0  0
   -7.1240    4.5742    0.0000 C   0  0  0  0  0  0  0  0  0  0  0  0
   -7.5365    5.2887    0.0000 C   0  0  0  0  0  0  0  0  0  0  0  0
   -8.3615    5.2887    0.0000 C   0  0  0  0  0  0  0  0  0  0  0  0
   -8.7740    6.0032    0.0000 N   0  0  0  0  0  0  0  0  0  0  0  0
   -7.1240    6.0032    0.0000 O   0  0  0  0  0  0  0  0  0  0  0  0
   -4.2952    5.3322    0.0000 C   0  0  0  0  0  0  0  0  0  0  0  0
   -3.5807    4.9197    0.0000 C   0  0  0  0  0  0  0  0  0  0  0  0
   -2.8662    5.3322    0.0000 C   0  0  0  0  0  0  0  0  0  0  0  0
   -3.5807    4.0947    0.0000 O   0  0  0  0  0  0  0  0  0  0  0  0
   -2.1518    4.9197    0.0000 C   0  0  0  0  0  0  0  0  0  0  0  0
   -1.4373    5.3322    0.0000 C   0  0  0  0  0  0  0  0  0  0  0  0
   -2.1518    4.0947    0.0000 O   0  0  0  0  0  0  0  0  0  0  0  0
   -1.4373    3.6822    0.0000 C   0  0  0  0  0  0  0  0  0  0  0  0
   -0.7228    4.0947    0.0000 C   0  0  0  0  0  0  0  0  0  0  0  0
   -0.7228    4.9197    0.0000 C   0  0  0  0  0  0  0  0  0  0  0  0
   -1.4373    2.8572    0.0000 C   0  0  0  0  0  0  0  0  0  0  0  0
   -0.7228    2.4446    0.0000 C   0  0  0  0  0  0  0  0  0  0  0  0
   -0.0084    2.8572    0.0000 C   0  0  0  0  0  0  0  0  0  0  0  0
   -0.0084    3.6822    0.0000 O   0  0  0  0  0  0  0  0  0  0  0  0
   -2.0207    2.2738    0.0000 O   0  0  0  0  0  0  0  0  0  0  0  0
    0.7061    2.4447    0.0000 C   0  0  0  0  0  0  0  0  0  0  0  0
    0.4926    1.6478    0.0000 C   0  0  0  0  0  0  0  0  0  0  0  0
   -0.2219    1.2353    0.0000 C   0  0  0  0  0  0  0  0  0  0  0  0
   -1.0188    1.4488    0.0000 C   0  0  0  0  0  0  0  0  0  0  0  0
   -1.8157    1.2353    0.0000 C   0  0  0  0  0  0  0  0  0  0  0  0
   -2.2282    0.5208    0.0000 C   0  0  0  0  0  0  0  0  0  0  0  0
   -0.3043    1.8613    0.0000 O   0  0  0  0  0  0  0  0  0  0  0  0
   -0.0908    2.2311    0.0000 O   0  0  0  0  0  0  0  0  0  0  0  0
   -3.3295    0.0589    0.0000 C   0  0  0  0  0  0  0  0  0  0  0  0
   -3.8486    0.7001    0.0000 O   0  0  0  0  0  0  0  0  0  0  0  0
   -4.6188    0.4044    0.0000 C   0  0  0  0  0  0  0  0  0  0  0  0
   -4.5757   -0.4194    0.0000 C   0  0  0  0  0  0  0  0  0  0  0  0
   -3.7788   -0.6329    0.0000 C   0  0  0  0  0  0  0  0  0  0  0  0
   -5.1590   -1.0028    0.0000 C   0  0  0  0  0  0  0  0  0  0  0  0
   -5.3333    0.8169    0.0000 C   0  0  0  0  0  0  0  0  0  0  0  0
   -5.3333    1.6419    0.0000 C   0  0  0  0  0  0  0  0  0  0  0  0
   -4.8911    2.0330    0.0000 C   0  0  0  0  0  0  0  0  0  0  0  0
   -4.1766    3.2706    0.0000 C   0  0  0  0  0  0  0  0  0  0  0  0
   -4.8911    2.8581    0.0000 O   0  0  0  0  0  0  0  0  0  0  0  0
   -4.1766    1.6205    0.0000 C   0  0  0  0  0  0  0  0  0  0  0  0
   -3.4621    2.0330    0.0000 C   0  0  0  0  0  0  0  0  0  0  0  0
   -3.4621    2.8581    0.0000 C   0  0  0  0  0  0  0  0  0  0  0  0
   -2.9245    3.1527    0.0000 C   0  0  0  0  0  0  0  0  0  0  0  0
   -2.7477    1.6205    0.0000 C   0  0  0  0  0  0  0  0  0  0  0  0
   -4.1766    3.6831    0.0000 C   0  0  0  0  0  0  0  0  0  0  0  0
  1  2  1  0
  1  5  1  0
  2  3  1  0
  3  4  1  0
  4  5  1  0
  1  6  1  6
  6  7  1  0
  2  8  1  6
  8  9  1  0
  9 10  1  0
 10 11  1  0
  9 12  1  1
  5 13  1  1
 13 14  1  0
 14 15  1  0
 14 16  2  0
 15 17  1  0
 18 17  1  0
 17 19  1  0
 18 22  1  0
 20 19  1  1
 21 22  1  6
 21 26  1  0
 21 20  1  0
 20 23  1  0
 23 24  1  0
 24 25  1  0
 25 26  1  1
 23 27  1  1
 25 28  1  0
 28 29  1  0
 29 30  1  1
 30 31  1  0
 31 32  1  1
 32 33  1  0
 29 34  1  0
 24 34  1  1
 28 35  1  1
 31 35  1  0
 31 27  1  0
 36 33  1  1
 40 36  1  0
 37 36  1  0
 37 38  1  0
 38 39  1  0
 39 40  1  0
 39 41  2  3
 38 42  1  6
 42 43  1  0
 44 43  1  6
 46 44  1  0
 44 47  1  0
 45 46  1  0
 45 49  1  0
 47 48  1  0
 48 49  1  0
 49 50  2  3
 48 51  1  6
 45 52  1  6
  4 52  1  6
M  END
$$$$
