
     RDKit          2D

 14 14  0  0  0  0  0  0  0  0999 V2000
    1.4480   -0.0011    0.0000 C   0  0  0  0  0  0  0  0  0  0  0  0
    1.0240    0.7126    0.0000 N   0  0  0  0  0  0  0  0  0  0  0  0
    1.0360   -0.7126    0.0000 C   0  0  0  0  0  0  0  0  0  0  0  0
    0.2048    0.7126    0.0000 C   0  0  0  0  0  0  0  0  0  0  0  0
    2.2744   -0.0011    0.0000 O   0  0  0  0  0  0  0  0  0  0  0  0
   -0.2048    1.4288    0.0000 C   0  0  0  0  0  0  0  0  0  0  0  0
   -0.2048    0.0131    0.0000 C   0  0  0  0  0  0  0  0  0  0  0  0
    1.4480   -1.4288    0.0000 Cl  0  0  0  0  0  0  0  0  0  0  0  0
    0.2167   -0.7126    0.0000 Cl  0  0  0  0  0  0  0  0  0  0  0  0
   -1.4480    0.7126    0.0000 C   0  0  0  0  0  0  0  0  0  0  0  0
   -1.0384    0.0131    0.0000 C   0  0  0  0  0  0  0  0  0  0  0  0
   -1.0384    1.4288    0.0000 C   0  0  0  0  0  0  0  0  0  0  0  0
    1.4383    1.4288    0.0000 C   0  0  0  0  0  0  0  0  0  0  0  0
   -2.2744    0.7126    0.0000 O   0  0  0  0  0  0  0  0  0  0  0  0
  2  1  1  0
  3  1  1  0
  4  2  1  0
  5  1  2  0
  6  4  2  0
  7  4  1  0
  8  3  1  0
  9  3  1  0
 10 11  1  0
 11  7  2  0
 12  6  1  0
 13  2  1  0
 14 10  1  0
 12 10  2  0
M  END
$$$$
