
     RDKit          2D

 19 20  0  0  0  0  0  0  0  0999 V2000
   -0.7144    2.0625    0.0000 C   0  0  0  0  0  0  0  0  0  0  0  0
    1.4289   -1.6500    0.0000 C   0  0  0  0  0  0  0  0  0  0  0  0
   -0.7144    1.2375    0.0000 C   0  0  0  0  0  0  0  0  0  0  0  0
    2.8578   -4.1250    0.0000 C   0  0  0  0  0  0  0  0  0  0  0  0
    3.5723   -3.7125    0.0000 C   0  0  0  0  0  0  0  0  0  0  0  0
    2.1434   -3.7125    0.0000 C   0  0  0  0  0  0  0  0  0  0  0  0
    0.0000    0.0000    0.0000 C   0  0  0  0  0  0  0  0  0  0  0  0
    0.7144    1.2375    0.0000 C   0  0  0  0  0  0  0  0  0  0  0  0
    0.7144   -0.4125    0.0000 C   0  0  0  0  0  0  0  0  0  0  0  0
    1.4289    0.8250    0.0000 C   0  0  0  0  0  0  0  0  0  0  0  0
    3.5723   -2.8875    0.0000 C   0  0  0  0  0  0  0  0  0  0  0  0
    2.1434   -2.8875    0.0000 C   0  0  0  0  0  0  0  0  0  0  0  0
    2.8578   -1.6500    0.0000 C   0  0  0  0  0  0  0  0  0  0  0  0
    2.1434   -1.2375    0.0000 C   0  0  0  0  0  0  0  0  0  0  0  0
    0.0000    0.8250    0.0000 C   0  0  0  0  0  0  0  0  0  0  0  0
    1.4289    0.0000    0.0000 C   0  0  0  0  0  0  0  0  0  0  0  0
    2.1434   -0.4125    0.0000 C   0  0  0  0  0  0  0  0  0  0  0  0
    2.8578   -2.4750    0.0000 N   0  0  0  0  0  0  0  0  0  0  0  0
    2.8578    0.0000    0.0000 O   0  0  0  0  0  0  0  0  0  0  0  0
  3  1  1  0
  5  4  1  0
  6  4  1  0
  9  7  2  0
 10  8  1  0
 11  5  1  0
 12  6  1  0
 14  2  1  0
 14 13  1  0
 15  3  1  0
 15  7  1  0
 15  8  2  0
 16  9  1  0
 16 10  2  0
 17 14  1  0
 17 16  1  0
 18 11  1  0
 18 12  1  0
 18 13  1  0
 19 17  2  0
M  END
$$$$
