
     RDKit          2D

 19 21  0  0  0  0  0  0  0  0999 V2000
    6.6320    1.1269    0.0000 C   0  0  0  0  0  0  0  0  0  0  0  0
    6.2195    1.8414    0.0000 C   0  0  0  0  0  0  0  0  0  0  0  0
    6.2195    0.4125    0.0000 C   0  0  0  0  0  0  0  0  0  0  0  0
    5.3945    1.8414    0.0000 C   0  0  0  0  0  0  0  0  0  0  0  0
    5.3945    0.4125    0.0000 C   0  0  0  0  0  0  0  0  0  0  0  0
    4.1570    1.1269    0.0000 C   0  0  0  0  0  0  0  0  0  0  0  0
    1.6820   -0.3019    0.0000 C   0  0  0  0  0  0  0  0  0  0  0  0
    1.6820    1.1269    0.0000 C   0  0  0  0  0  0  0  0  0  0  0  0
    3.7445    0.4125    0.0000 C   0  0  0  0  0  0  0  0  0  0  0  0
    2.5070   -0.3019    0.0000 C   0  0  0  0  0  0  0  0  0  0  0  0
    2.5070    1.1269    0.0000 C   0  0  0  0  0  0  0  0  0  0  0  0
    0.7846   -0.2549    0.0000 C   0  0  0  0  0  0  0  0  0  0  0  0
    4.9820    1.1269    0.0000 C   0  0  0  0  0  0  0  0  0  0  0  0
    0.0000    0.8250    0.0000 C   0  0  0  0  0  0  0  0  0  0  0  0
    1.2695    0.4125    0.0000 C   0  0  0  0  0  0  0  0  0  0  0  0
    0.0000    0.0000    0.0000 N   0  0  0  0  0  0  0  0  0  0  0  0
    2.9195    0.4125    0.0000 N   0  0  0  0  0  0  0  0  0  0  0  0
   -0.6674    1.3099    0.0000 O   0  0  0  0  0  0  0  0  0  0  0  0
    0.7846    1.0799    0.0000 O   0  0  0  0  0  0  0  0  0  0  0  0
  2  1  2  0
  3  1  1  0
  4  2  1  0
  5  3  2  0
  9  6  1  0
 10  7  1  0
 11  8  1  0
 13  4  2  0
 13  5  1  0
 13  6  1  0
 15  7  1  0
 15  8  1  0
 15 12  1  0
 16 12  1  0
 16 14  2  0
 17  9  1  0
 17 10  1  0
 17 11  1  0
 18 14  1  0
 19 14  1  0
 19 15  1  0
M  END
$$$$
