
     RDKit          2D

 19 19  0  0  0  0  0  0  0  0999 V2000
    0.7145    4.5375    0.0000 C   0  0  0  0  0  0  0  0  0  0  0  0
    1.4289   -0.0000    0.0000 C   0  0  0  0  0  0  0  0  0  0  0  0
    0.0000   -0.0000    0.0000 C   0  0  0  0  0  0  0  0  0  0  0  0
    1.4289    0.8250    0.0000 C   0  0  0  0  0  0  0  0  0  0  0  0
    0.0000    0.8250    0.0000 C   0  0  0  0  0  0  0  0  0  0  0  0
   -0.7145    3.7125    0.0000 C   0  0  0  0  0  0  0  0  0  0  0  0
    0.7145    3.7125    0.0000 C   0  0  0  0  0  0  0  0  0  0  0  0
    0.7145   -0.4125    0.0000 C   0  0  0  0  0  0  0  0  0  0  0  0
    0.7145    1.2375    0.0000 C   0  0  0  0  0  0  0  0  0  0  0  0
   -0.0000    3.3000    0.0000 C   0  0  0  0  0  0  0  0  0  0  0  0
   -0.0000    2.4750    0.0000 C   0  0  0  0  0  0  0  0  0  0  0  0
    0.7145   -1.2375    0.0000 C   0  0  0  0  0  0  0  0  0  0  0  0
    0.7145   -2.0625    0.0000 F   0  0  0  0  0  0  0  0  0  0  0  0
   -0.1105   -1.2375    0.0000 F   0  0  0  0  0  0  0  0  0  0  0  0
    1.5395   -1.2375    0.0000 F   0  0  0  0  0  0  0  0  0  0  0  0
   -1.4289    4.1250    0.0000 N   0  0  0  0  0  0  0  0  0  0  0  0
    0.7145    2.0625    0.0000 N   0  0  0  0  0  0  0  0  0  0  0  0
    1.4289    3.3000    0.0000 O   0  0  0  0  0  0  0  0  0  0  0  0
   -0.7145    2.0625    0.0000 O   0  0  0  0  0  0  0  0  0  0  0  0
  4  2  2  0
  5  3  1  0
  7  1  1  0
  8  2  1  0
  8  3  2  0
  9  4  1  0
  9  5  2  0
 10  6  1  0
 10  7  2  0
 11 10  1  0
 12  8  1  0
 13 12  1  0
 14 12  1  0
 15 12  1  0
 16  6  3  0
 17  9  1  0
 17 11  1  0
 18  7  1  0
 19 11  2  0
M  END
$$$$
