 
     RDKit          2D

 27 29  0  0  0  0  0  0  0  0999 V2000
    7.6725  -10.6425    0.0000 C   0  0  0  0  0  0  0  0  0  0  0  0
    7.6725  -11.4675    0.0000 C   0  0  0  0  0  0  0  0  0  0  0  0
    8.3870  -11.8800    0.0000 C   0  0  0  0  0  0  0  0  0  0  0  0
    9.1015  -11.4675    0.0000 C   0  0  0  0  0  0  0  0  0  0  0  0
    9.1015  -10.6425    0.0000 C   0  0  0  0  0  0  0  0  0  0  0  0
    8.3870  -10.2300    0.0000 N   0  0  0  0  0  0  0  0  0  0  0  0
    9.8269  -10.2235    0.0000 C   0  0  0  0  0  0  0  0  0  0  0  0
   10.5371  -10.6335    0.0000 C   0  0  0  0  0  0  0  0  0  0  0  0
   11.2515  -10.2209    0.0000 C   0  0  0  0  0  0  0  0  0  0  0  0
   11.2515   -9.3959    0.0000 C   0  0  0  0  0  0  0  0  0  0  0  0
   10.5413   -8.9860    0.0000 C   0  0  0  0  0  0  0  0  0  0  0  0
    9.8269   -9.3985    0.0000 C   0  0  0  0  0  0  0  0  0  0  0  0
    9.1082   -8.9836    0.0000 Cl  0  0  0  0  0  0  0  0  0  0  0  0
   11.9773  -10.6398    0.0000 N   0  0  0  0  0  0  0  0  0  0  0  0
   12.6794  -10.2342    0.0000 C   0  0  0  0  0  0  0  0  0  0  0  0
   13.3803  -10.6388    0.0000 C   0  0  0  0  0  0  0  0  0  0  0  0
   12.6793   -9.4051    0.0000 O   0  0  0  0  0  0  0  0  0  0  0  0
   13.3805  -11.4674    0.0000 C   0  0  0  0  0  0  0  0  0  0  0  0
   14.0951  -11.8797    0.0000 C   0  0  0  0  0  0  0  0  0  0  0  0
   14.8095  -11.4670    0.0000 C   0  0  0  0  0  0  0  0  0  0  0  0
   14.8093  -10.6385    0.0000 C   0  0  0  0  0  0  0  0  0  0  0  0
   14.0947  -10.2262    0.0000 C   0  0  0  0  0  0  0  0  0  0  0  0
   14.0946   -9.4051    0.0000 Cl  0  0  0  0  0  0  0  0  0  0  0  0
   15.5237  -11.8792    0.0000 S   0  0  0  0  0  0  0  0  0  0  0  0
   16.2381  -12.2917    0.0000 C   0  0  0  0  0  0  0  0  0  0  0  0
   15.9362  -11.1647    0.0000 O   0  0  0  0  0  0  0  0  0  0  0  0
   15.1112  -12.5937    0.0000 O   0  0  0  0  0  0  0  0  0  0  0  0
  1  2  2  0
  2  3  1  0
  3  4  2  0
  4  5  1  0
  5  6  2  0
  1  6  1  0
  5  7  1  0
  7  8  2  0
  8  9  1  0
  9 10  2  0
 10 11  1  0
 11 12  2  0
  7 12  1  0
 12 13  1  0
  9 14  1  0
 14 15  1  0
 15 16  1  0
 15 17  2  0
 16 18  2  0
 18 19  1  0
 19 20  2  0
 20 21  1  0
 21 22  2  0
 16 22  1  0
 22 23  1  0
 20 24  1  0
 24 25  1  0
 24 26  2  0
 24 27  2  0
M  END
$$$$
