
     RDKit          2D

 48 49  0  0  1  0  0  0  0  0999 V2000
   -1.4289    2.4750    0.0000 C   0  0  0  0  0  0  0  0  0  0  0  0
    0.7144    6.1875    0.0000 C   0  0  0  0  0  0  0  0  0  0  0  0
   -2.1434    2.8875    0.0000 C   0  0  0  0  0  0  0  0  0  0  0  0
    0.0000    6.6000    0.0000 C   0  0  0  0  0  0  0  0  0  0  0  0
    0.7144    2.8875    0.0000 C   0  0  0  0  0  0  0  0  0  0  0  0
    1.4289    3.3000    0.0000 C   0  0  0  0  0  0  0  0  0  0  0  0
    1.4289    7.4250    0.0000 C   0  0  0  0  0  0  0  0  0  0  0  0
    4.2868    6.6000    0.0000 C   0  0  0  0  0  0  0  0  0  0  0  0
    4.2868    4.1250    0.0000 C   0  0  0  0  0  0  0  0  0  0  0  0
    0.0000    2.4750    0.0000 C   0  0  0  0  0  0  0  0  0  0  0  0
    0.7144    5.3625    0.0000 C   0  0  0  0  0  0  0  0  0  0  0  0
    2.1434    3.7125    0.0000 C   0  0  0  0  0  0  0  0  0  0  0  0
    2.1434    7.0125    0.0000 C   0  0  0  0  0  0  0  0  0  0  0  0
    3.5723    6.1875    0.0000 C   0  0  0  0  0  0  0  0  0  0  0  0
    3.5723    4.5375    0.0000 C   0  0  0  0  0  0  0  0  0  0  0  0
   -0.7144    2.8875    0.0000 C   0  0  0  0  0  0  0  0  0  0  0  0
    1.4289    2.4750    0.0000 C   0  0  0  0  0  0  0  0  0  0  0  0
    1.4289    4.9500    0.0000 C   0  0  0  0  0  0  0  0  0  0  0  0
    2.8578    3.3000    0.0000 C   0  0  0  0  0  0  0  0  0  0  0  0
    2.1434    6.1875    0.0000 C   0  0  0  0  0  0  0  0  0  0  0  0
    3.5723    7.0125    0.0000 C   0  0  0  0  0  0  0  0  0  0  0  0
    4.2868    4.9500    0.0000 C   0  0  0  0  0  0  0  0  0  0  0  0
    0.7144    4.5375    0.0000 C   0  0  0  0  0  0  0  0  0  0  0  0
   -0.7144    5.3625    0.0000 C   0  0  0  0  0  0  0  0  0  0  0  0
    2.1434    8.6625    0.0000 C   0  0  0  0  0  0  0  0  0  0  0  0
   -2.8578    2.4750    0.0000 N   0  0  0  0  0  0  0  0  0  0  0  0
    0.0000    1.6500    0.0000 N   0  0  0  0  0  0  0  0  0  0  0  0
   -1.4289    4.9500    0.0000 N   0  0  0  0  0  0  0  0  0  0  0  0
    2.1434    9.4875    0.0000 N   0  0  0  0  0  0  0  0  0  0  0  0
   -0.7144    6.1875    0.0000 N   0  0  0  0  0  0  0  0  0  0  0  0
    0.7144    3.7125    0.0000 N   0  0  0  0  0  0  0  0  0  0  0  0
    1.4289    8.2500    0.0000 N   0  0  0  0  0  0  0  0  0  0  0  0
    2.1434    2.8875    0.0000 N   0  0  0  0  0  0  0  0  0  0  0  0
    2.8578    7.4250    0.0000 N   0  0  0  0  0  0  0  0  0  0  0  0
    3.5723    3.7125    0.0000 N   0  0  0  0  0  0  0  0  0  0  0  0
    4.2868    5.7750    0.0000 N   0  0  0  0  0  0  0  0  0  0  0  0
    0.0000    4.9500    0.0000 N   0  0  0  0  0  0  0  0  0  0  0  0
    1.4289    5.7750    0.0000 N   0  0  0  0  0  0  0  0  0  0  0  0
    5.0012    6.1875    0.0000 O   0  0  0  0  0  0  0  0  0  0  0  0
    4.2868    3.3000    0.0000 O   0  0  0  0  0  0  0  0  0  0  0  0
   -0.7144    3.7125    0.0000 O   0  0  0  0  0  0  0  0  0  0  0  0
    1.4289    1.6500    0.0000 O   0  0  0  0  0  0  0  0  0  0  0  0
    2.8578    2.4750    0.0000 O   0  0  0  0  0  0  0  0  0  0  0  0
    2.8578    5.7750    0.0000 O   0  0  0  0  0  0  0  0  0  0  0  0
    4.2868    7.4250    0.0000 O   0  0  0  0  0  0  0  0  0  0  0  0
    5.0012    4.5375    0.0000 O   0  0  0  0  0  0  0  0  0  0  0  0
   -0.1060    4.4512    0.0000 O   0  0  0  0  0  0  0  0  0  0  0  0
    2.8578    8.2500    0.0000 O   0  0  0  0  0  0  0  0  0  0  0  0
  3  1  1  0
  4  2  1  0
 10  5  1  0
 11  2  1  6
 12  6  1  0
 13  7  2  3
 14  8  1  1
 15  9  1  1
 16  1  1  0
 16 10  1  0
 17  5  1  0
 11 18  1  0
 19 12  1  0
 20 13  1  0
 21 14  1  0
 22 15  1  0
 23 18  1  0
 26  3  1  0
 10 27  1  6
 28 24  2  3
 29 25  2  3
 30  4  1  0
 30 24  1  0
 31  6  1  0
 31 23  2  0
 32  7  1  0
 32 25  1  0
 12 33  1  6
 33 17  2  3
 34 13  1  0
 34 21  2  0
 35 15  1  0
 35 19  2  0
 36 14  1  0
 36 22  2  0
 37 11  1  0
 37 24  1  0
 18 38  1  6
 38 20  2  0
 39  8  1  0
 40  9  1  0
 16 41  1  1
 17 42  1  0
 19 43  1  0
 20 44  1  0
 45 21  1  0
 22 46  1  0
 47 23  1  0
 48 25  1  0
M  END
$$$$
