
     RDKit          2D

 37 41  0  0  0  0  0  0  0  0999 V2000
   -3.2176    1.9800    0.0000 C   0  0  0  0  0  0  0  0  0  0  0  0
   -3.2176    1.1550    0.0000 C   0  0  0  0  0  0  0  0  0  0  0  0
   -3.9189    0.7425    0.0000 C   0  0  0  0  0  0  0  0  0  0  0  0
   -4.6614    1.1550    0.0000 C   0  0  0  0  0  0  0  0  0  0  0  0
   -4.6614    1.9800    0.0000 C   0  0  0  0  0  0  0  0  0  0  0  0
   -3.9189    2.3926    0.0000 N   0  0  0  0  0  0  0  0  0  0  0  0
   -2.5163    2.3926    0.0000 C   0  0  0  0  0  0  0  0  0  0  0  0
   -1.7738    1.9800    0.0000 C   0  0  0  0  0  0  0  0  0  0  0  0
   -1.7738    1.1550    0.0000 C   0  0  0  0  0  0  0  0  0  0  0  0
   -2.5163    0.7425    0.0000 C   0  0  0  0  0  0  0  0  0  0  0  0
   -1.0725    2.3926    0.0000 O   0  0  0  0  0  0  0  0  0  0  0  0
   -0.3712    1.9800    0.0000 C   0  0  0  0  0  0  0  0  0  0  0  0
   -1.0725    0.7425    0.0000 O   0  0  0  0  0  0  0  0  0  0  0  0
   -0.3712    1.1550    0.0000 C   0  0  0  0  0  0  0  0  0  0  0  0
   -3.9189   -0.0824    0.0000 O   0  0  0  0  0  0  0  0  0  0  0  0
   -3.1763   -0.4950    0.0000 C   0  0  0  0  0  0  0  0  0  0  0  0
   -3.1763   -1.3201    0.0000 C   0  0  0  0  0  0  0  0  0  0  0  0
   -2.4750   -1.7326    0.0000 C   0  0  0  0  0  0  0  0  0  0  0  0
   -1.7738   -1.3201    0.0000 C   0  0  0  0  0  0  0  0  0  0  0  0
   -1.7738   -0.4537    0.0000 C   0  0  0  0  0  0  0  0  0  0  0  0
   -2.4750   -0.0412    0.0000 C   0  0  0  0  0  0  0  0  0  0  0  0
   -1.0313   -1.6913    0.0000 N   0  0  0  0  0  0  0  0  0  0  0  0
   -0.3300   -1.2788    0.0000 C   0  0  0  0  0  0  0  0  0  0  0  0
    0.4125   -1.6913    0.0000 C   0  0  0  0  0  0  0  0  0  0  0  0
   -0.3300   -0.4537    0.0000 O   0  0  0  0  0  0  0  0  0  0  0  0
    1.1138   -1.2375    0.0000 C   0  0  0  0  0  0  0  0  0  0  0  0
    1.8151   -1.6500    0.0000 N   0  0  0  0  0  0  0  0  0  0  0  0
    1.1138   -0.4125    0.0000 O   0  0  0  0  0  0  0  0  0  0  0  0
    2.5163   -1.2375    0.0000 C   0  0  0  0  0  0  0  0  0  0  0  0
    3.2589   -1.6500    0.0000 C   0  0  0  0  0  0  0  0  0  0  0  0
    3.9189   -1.1963    0.0000 C   0  0  0  0  0  0  0  0  0  0  0  0
    3.9189   -0.3713    0.0000 C   0  0  0  0  0  0  0  0  0  0  0  0
    3.2176    0.0000    0.0000 C   0  0  0  0  0  0  0  0  0  0  0  0
    2.5163   -0.4125    0.0000 C   0  0  0  0  0  0  0  0  0  0  0  0
    4.6615    0.0000    0.0000 F   0  0  0  0  0  0  0  0  0  0  0  0
    0.0000   -2.3926    0.0000 C   0  0  0  0  0  0  0  0  0  0  0  0
    0.8250   -2.3926    0.0000 C   0  0  0  0  0  0  0  0  0  0  0  0
  1  2  2  0
  2  3  1  0
  3  4  2  0
  4  5  1  0
  5  6  2  0
  1  6  1  0
  1  7  1  0
  7  8  2  0
  8  9  1  0
  9 10  2  0
  2 10  1  0
  8 11  1  0
 11 12  1  0
  9 13  1  0
 13 14  1  0
  3 15  1  0
 15 16  1  0
 16 17  2  0
 17 18  1  0
 18 19  2  0
 19 20  1  0
 20 21  2  0
 16 21  1  0
 19 22  1  0
 22 23  1  0
 23 24  1  0
 23 25  2  0
 24 26  1  0
 26 27  1  0
 26 28  2  0
 27 29  1  0
 29 30  2  0
 30 31  1  0
 31 32  2  0
 32 33  1  0
 33 34  2  0
 29 34  1  0
 32 35  1  0
 36 37  1  0
 37 24  1  0
 24 36  1  0
M  END
$$$$
