44112
     RDKit          2D

 28 30  0  0  1  0  0  0  0  0999 V2000
    5.2224    0.9875    0.0000 O   0  0  0  0  0  0  0  0  0  0  0  0
    5.2224   -0.6625    0.0000 O   0  0  0  0  0  0  0  0  0  0  0  0
    4.5080    2.2251    0.0000 O   0  0  0  0  0  0  0  0  0  0  0  0
    3.0790    0.5750    0.0000 N   0  0  0  0  0  0  0  0  0  0  0  0
    6.7176   -2.9764    0.0000 N   0  0  0  0  0  0  0  0  0  0  0  0
    2.3645    0.9875    0.0000 C   0  0  0  0  0  0  0  0  0  0  0  0
    3.7935    0.9875    0.0000 C   0  0  0  0  0  0  0  0  0  0  0  0
    4.5080    0.5750    0.0000 C   0  0  0  0  0  0  0  0  0  0  0  0
    1.6500    1.4001    0.0000 C   0  0  0  0  0  0  0  0  0  0  0  0
    2.7770    1.7020    0.0000 C   0  0  0  0  0  0  0  0  0  0  0  0
    1.9520    0.2731    0.0000 C   0  0  0  0  0  0  0  0  0  0  0  0
    4.5080   -0.2500    0.0000 C   0  0  0  0  0  0  0  0  0  0  0  0
    5.9370   -1.9000    0.0000 C   0  0  0  0  0  0  0  0  0  0  0  0
    5.2224   -1.4875    0.0000 C   0  0  0  0  0  0  0  0  0  0  0  0
    5.9370   -2.7250    0.0000 C   0  0  0  0  0  0  0  0  0  0  0  0
    6.7176   -1.6486    0.0000 C   0  0  0  0  0  0  0  0  0  0  0  0
    7.1991   -2.3125    0.0000 C   0  0  0  0  0  0  0  0  0  0  0  0
    4.5080   -1.9000    0.0000 C   0  0  0  0  0  0  0  0  0  0  0  0
    5.2224   -3.1375    0.0000 C   0  0  0  0  0  0  0  0  0  0  0  0
    5.2224    1.8126    0.0000 C   0  0  0  0  0  0  0  0  0  0  0  0
    4.5080   -2.7250    0.0000 C   0  0  0  0  0  0  0  0  0  0  0  0
    8.0241   -2.3125    0.0000 C   0  0  0  0  0  0  0  0  0  0  0  0
    5.9370    2.2251    0.0000 C   0  0  0  0  0  0  0  0  0  0  0  0
    6.6515    1.8126    0.0000 C   0  0  0  0  0  0  0  0  0  0  0  0
    5.9370    3.0501    0.0000 C   0  0  0  0  0  0  0  0  0  0  0  0
    7.3659    2.2251    0.0000 C   0  0  0  0  0  0  0  0  0  0  0  0
    6.6515    3.4626    0.0000 C   0  0  0  0  0  0  0  0  0  0  0  0
    7.3659    3.0501    0.0000 C   0  0  0  0  0  0  0  0  0  0  0  0
  1  8  1  0
  1 20  1  0
  2 12  1  0
  2 14  1  0
  3 20  2  0
  4  6  1  0
  4  7  1  0
  5 15  1  0
  5 17  1  0
  6  9  1  0
  6 10  1  0
  6 11  1  0
  7  8  1  0
  8 12  1  0
 13 14  1  0
 13 15  2  0
 13 16  1  0
 14 18  2  0
 15 19  1  0
 16 17  2  0
 17 22  1  0
 18 21  1  0
 19 21  2  0
 20 23  1  0
 23 24  2  0
 23 25  1  0
 24 26  1  0
 25 27  2  0
 26 28  2  0
 27 28  1  0
M  END
$$$$
