 
     RDKit          2D

 37 41  0  0  1  0  0  0  0  0999 V2000
    8.9513  -14.3137    0.0000 C   0  0  0  0  0  0  0  0  0  0  0  0
    8.9513  -15.1387    0.0000 C   0  0  0  0  0  0  0  0  0  0  0  0
    9.6657  -15.5512    0.0000 C   0  0  0  0  0  0  0  0  0  0  0  0
   10.3802  -15.1387    0.0000 C   0  0  0  0  0  0  0  0  0  0  0  0
   10.3802  -14.3137    0.0000 C   0  0  0  0  0  0  0  0  0  0  0  0
    9.6657  -13.9012    0.0000 C   0  0  0  0  0  0  0  0  0  0  0  0
   11.0947  -13.9012    0.0000 C   0  0  0  0  0  0  0  0  0  0  0  0
   11.0947  -13.0762    0.0000 C   0  0  0  0  0  0  0  0  0  0  0  0
   10.3802  -12.6637    0.0000 C   0  0  0  0  0  0  0  0  0  0  0  0
    9.6657  -13.0762    0.0000 N   0  0  0  0  0  0  0  0  0  0  0  0
   11.8103  -12.6630    0.0000 C   0  0  0  0  0  0  0  0  0  0  0  0
   12.5154  -13.0702    0.0000 C   0  0  0  0  0  0  0  0  0  0  0  0
   11.8103  -11.8389    0.0000 C   0  0  0  0  0  0  0  0  0  0  0  0
   10.3802  -11.8389    0.0000 O   0  0  0  0  0  0  0  0  0  0  0  0
    9.6768  -11.4327    0.0000 C   0  0  0  0  0  0  0  0  0  0  0  0
   13.2148  -12.6665    0.0000 C   0  0  0  0  0  0  0  0  0  0  0  0
   12.5155  -13.9011    0.0000 C   0  0  0  0  0  0  0  0  0  0  0  0
   13.9169  -13.0720    0.0000 C   0  0  0  0  0  0  0  0  0  0  0  0
   14.6178  -12.6673    0.0000 N   0  0  0  0  0  0  0  0  0  0  0  0
   15.3192  -13.0724    0.0000 C   0  0  0  0  0  0  0  0  0  0  0  0
   14.6179  -11.8389    0.0000 C   0  0  0  0  0  0  0  0  0  0  0  0
   11.7885  -14.3210    0.0000 C   0  0  0  0  0  0  0  0  0  0  0  0
   11.7887  -15.1460    0.0000 C   0  0  0  0  0  0  0  0  0  0  0  0
   12.5033  -15.5583    0.0000 C   0  0  0  0  0  0  0  0  0  0  0  0
   13.2302  -15.1384    0.0000 C   0  0  0  0  0  0  0  0  0  0  0  0
   13.2301  -14.3134    0.0000 C   0  0  0  0  0  0  0  0  0  0  0  0
   13.9448  -15.5507    0.0000 C   0  0  0  0  0  0  0  0  0  0  0  0
   14.6592  -15.1380    0.0000 C   0  0  0  0  0  0  0  0  0  0  0  0
   14.6590  -14.3130    0.0000 C   0  0  0  0  0  0  0  0  0  0  0  0
   13.9444  -13.9007    0.0000 C   0  0  0  0  0  0  0  0  0  0  0  0
   12.5152  -11.4318    0.0000 C   0  0  0  0  0  0  0  0  0  0  0  0
   12.5151  -10.6068    0.0000 C   0  0  0  0  0  0  0  0  0  0  0  0
   11.8006  -10.1944    0.0000 C   0  0  0  0  0  0  0  0  0  0  0  0
   11.0958  -10.6014    0.0000 C   0  0  0  0  0  0  0  0  0  0  0  0
   11.0958  -11.4264    0.0000 C   0  0  0  0  0  0  0  0  0  0  0  0
   13.2299  -13.4827    0.0000 O   0  0  0  0  0  0  0  0  0  0  0  0
    9.6657  -16.3761    0.0000 Br  0  0  0  0  0  0  0  0  0  0  0  0
  1  2  2  0
  2  3  1  0
  3  4  2  0
  4  5  1  0
  5  6  2  0
  1  6  1  0
  5  7  1  0
  7  8  2  0
  8  9  1  0
  9 10  2  0
  6 10  1  0
 11  8  1  1
 11 12  1  0
 11 13  1  0
  9 14  1  0
 14 15  1  0
 12 16  1  0
 12 17  1  0
 16 18  1  0
 18 19  1  0
 19 20  1  0
 19 21  1  0
 17 22  2  0
 22 23  1  0
 23 24  2  0
 24 25  1  0
 25 26  2  0
 17 26  1  0
 25 27  1  0
 27 28  2  0
 28 29  1  0
 29 30  2  0
 26 30  1  0
 13 31  2  0
 31 32  1  0
 32 33  2  0
 33 34  1  0
 34 35  2  0
 13 35  1  0
 12 36  1  6
  3 37  1  0
M  END
$$$$
