
     RDKit          2D

 20 20  0  0  0  0  0  0  0  0999 V2000
    3.1598    5.2519    0.0000 C   0  0  0  0  0  0  0  0  0  0  0  0
    6.8723    4.5375    0.0000 C   0  0  0  0  0  0  0  0  0  0  0  0
    4.8098    2.3940    0.0000 C   0  0  0  0  0  0  0  0  0  0  0  0
    8.5223    3.1085    0.0000 C   0  0  0  0  0  0  0  0  0  0  0  0
    6.0473    1.6796    0.0000 C   0  0  0  0  0  0  0  0  0  0  0  0
    3.5723    4.5375    0.0000 C   0  0  0  0  0  0  0  0  0  0  0  0
    6.0473    4.5375    0.0000 C   0  0  0  0  0  0  0  0  0  0  0  0
    4.3973    3.1085    0.0000 C   0  0  0  0  0  0  0  0  0  0  0  0
    8.1098    0.9651    0.0000 C   0  0  0  0  0  0  0  0  0  0  0  0
    8.5223    1.6796    0.0000 C   0  0  0  0  0  0  0  0  0  0  0  0
    7.2848    0.9651    0.0000 C   0  0  0  0  0  0  0  0  0  0  0  0
    4.3973    4.5375    0.0000 C   0  0  0  0  0  0  0  0  0  0  0  0
    8.1098    2.3940    0.0000 C   0  0  0  0  0  0  0  0  0  0  0  0
    6.8723    1.6796    0.0000 C   0  0  0  0  0  0  0  0  0  0  0  0
    5.6348    3.8230    0.0000 C   0  0  0  0  0  0  0  0  0  0  0  0
    7.2848    2.3940    0.0000 C   0  0  0  0  0  0  0  0  0  0  0  0
    6.0473    3.1085    0.0000 C   0  0  0  0  0  0  0  0  0  0  0  0
    6.8723    3.1085    0.0000 N   0  0  0  0  0  0  0  0  0  0  0  0
    4.8098    3.8230    0.0000 N   0  0  0  0  0  0  0  0  0  0  0  0
    5.6348    2.3940    0.0000 O   0  0  0  0  0  0  0  0  0  0  0  0
  6  1  1  0
  7  2  1  0
  8  3  1  0
 10  9  2  0
 11  9  1  0
 12  6  1  0
 13  4  1  0
 13 10  1  0
 14  5  1  0
 14 11  2  0
 15  7  1  0
 16 13  2  0
 16 14  1  0
 17 15  1  0
 18 16  1  0
 18 17  2  3
 19  8  1  0
 19 12  1  0
 19 15  1  0
 20 17  1  0
M  END
$$$$
