
     RDKit          2D

 23 26  0  0  1  0  0  0  0  0999 V2000
   -0.1435   -0.0305    0.0000 C   0  0  0  0  0  0  0  0  0  0  0  0
   -0.6284   -0.6979    0.0000 C   0  0  0  0  0  0  0  0  0  0  0  0
   -0.1435   -1.3654    0.0000 N   0  0  0  0  0  0  0  0  0  0  0  0
    0.6411   -1.1104    0.0000 C   0  0  0  0  0  0  0  0  0  0  0  0
    0.6411   -0.2854    0.0000 C   0  0  0  0  0  0  0  0  0  0  0  0
    1.3556    0.1271    0.0000 C   0  0  0  0  0  0  0  0  0  0  0  0
    2.0701   -0.2854    0.0000 N   0  0  0  0  0  0  0  0  0  0  0  0
    2.0701   -1.1104    0.0000 C   0  0  0  0  0  0  0  0  0  0  0  0
    1.3556   -1.5229    0.0000 N   0  0  0  0  0  0  0  0  0  0  0  0
    1.3556    0.9521    0.0000 C   0  0  0  0  0  0  0  0  0  0  0  0
    0.6881    1.4370    0.0000 C   0  0  0  0  0  0  0  0  0  0  0  0
    0.9431    2.2216    0.0000 N   0  0  0  0  0  0  0  0  0  0  0  0
    1.7681    2.2216    0.0000 N   0  0  0  0  0  0  0  0  0  0  0  0
    2.0230    1.4370    0.0000 C   0  0  0  0  0  0  0  0  0  0  0  0
    2.2530    2.8890    0.0000 C   0  0  0  0  0  0  0  0  0  0  0  0
    3.0735    2.8028    0.0000 C   0  0  0  0  0  0  0  0  0  0  0  0
    3.5584    3.4702    0.0000 C   0  0  0  0  0  0  0  0  0  0  0  0
    4.0433    4.1377    0.0000 N   0  0  0  0  0  0  0  0  0  0  0  0
    1.9175    3.6427    0.0000 C   0  0  0  0  0  0  0  0  0  0  0  0
    1.1105    3.8142    0.0000 C   0  0  0  0  0  0  0  0  0  0  0  0
    1.0242    4.6347    0.0000 C   0  0  0  0  0  0  0  0  0  0  0  0
    1.7779    4.9703    0.0000 C   0  0  0  0  0  0  0  0  0  0  0  0
    2.3300    4.3572    0.0000 C   0  0  0  0  0  0  0  0  0  0  0  0
  1  2  2  0
  2  3  1  0
  3  4  1  0
  4  5  2  0
  1  5  1  0
  5  6  1  0
  6  7  2  0
  7  8  1  0
  8  9  2  0
  4  9  1  0
  6 10  1  0
 10 11  1  0
 11 12  2  0
 12 13  1  0
 13 14  1  0
 10 14  2  0
 15 13  1  0
 15 16  1  1
 16 17  1  0
 17 18  3  0
 15 19  1  0
 19 20  1  0
 20 21  1  0
 21 22  1  0
 22 23  1  0
 19 23  1  0
M  END
$$$$
