5147
     RDKit          2D

 10 10  0  0  0  0  0  0  0  0999 V2000
    2.0930   -0.0495    0.0000 O   0  0  0  0  0  0  0  0  0  0  0  0
    2.8075    1.1880    0.0000 O   0  0  0  0  0  0  0  0  0  0  0  0
    4.2365    1.1880    0.0000 N   0  0  0  0  0  0  0  0  0  0  0  0
    3.5220   -0.0495    0.0000 C   0  0  0  0  0  0  0  0  0  0  0  0
    2.8075   -0.4620    0.0000 C   0  0  0  0  0  0  0  0  0  0  0  0
    4.2365   -0.4620    0.0000 C   0  0  0  0  0  0  0  0  0  0  0  0
    2.8075   -1.2870    0.0000 C   0  0  0  0  0  0  0  0  0  0  0  0
    4.2365   -1.2870    0.0000 C   0  0  0  0  0  0  0  0  0  0  0  0
    3.5220   -1.6995    0.0000 C   0  0  0  0  0  0  0  0  0  0  0  0
    3.5220    0.7755    0.0000 C   0  0  0  0  0  0  0  0  0  0  0  0
  1  5  1  0
  2 10  2  0
  3 10  1  0
  4  5  2  0
  4  6  1  0
  4 10  1  0
  5  7  1  0
  6  8  2  0
  7  9  2  0
  8  9  1  0
M  END
$$$$
