
     RDKit          2D

 26 27  0  0  0  0  0  0  0  0999 V2000
    8.5736    5.7750    0.0000 C   0  0  0  0  0  0  0  0  0  0  0  0
    9.2881    6.1875    0.0000 C   0  0  0  0  0  0  0  0  0  0  0  0
   10.7170    8.6625    0.0000 C   0  0  0  0  0  0  0  0  0  0  0  0
   10.7170    9.4875    0.0000 C   0  0  0  0  0  0  0  0  0  0  0  0
   10.0025    8.2500    0.0000 C   0  0  0  0  0  0  0  0  0  0  0  0
    7.8591    6.1875    0.0000 C   0  0  0  0  0  0  0  0  0  0  0  0
    9.2881    7.0125    0.0000 C   0  0  0  0  0  0  0  0  0  0  0  0
    2.8578    7.4250    0.0000 C   0  0  0  0  0  0  0  0  0  0  0  0
    3.5723    7.0125    0.0000 C   0  0  0  0  0  0  0  0  0  0  0  0
    5.0012    7.0125    0.0000 C   0  0  0  0  0  0  0  0  0  0  0  0
    5.7157    7.4250    0.0000 C   0  0  0  0  0  0  0  0  0  0  0  0
    9.2881    9.4875    0.0000 C   0  0  0  0  0  0  0  0  0  0  0  0
   10.0025    9.9000    0.0000 C   0  0  0  0  0  0  0  0  0  0  0  0
    9.2881    8.6625    0.0000 C   0  0  0  0  0  0  0  0  0  0  0  0
    7.8591    7.0125    0.0000 C   0  0  0  0  0  0  0  0  0  0  0  0
    8.5736    7.4250    0.0000 C   0  0  0  0  0  0  0  0  0  0  0  0
    7.1447    7.4250    0.0000 C   0  0  0  0  0  0  0  0  0  0  0  0
   10.0025   10.7250    0.0000 C   0  0  0  0  0  0  0  0  0  0  0  0
   10.0025   11.5500    0.0000 F   0  0  0  0  0  0  0  0  0  0  0  0
    9.1775   10.7250    0.0000 F   0  0  0  0  0  0  0  0  0  0  0  0
   10.8275   10.7250    0.0000 F   0  0  0  0  0  0  0  0  0  0  0  0
    8.5736    8.2500    0.0000 N   0  0  0  0  0  0  0  0  0  0  0  0
    2.1434    7.0125    0.0000 O   0  0  0  0  0  0  0  0  0  0  0  0
    7.1447    8.2500    0.0000 O   0  0  0  0  0  0  0  0  0  0  0  0
    4.2868    7.4250    0.0000 O   0  0  0  0  0  0  0  0  0  0  0  0
    6.4302    7.0125    0.0000 O   0  0  0  0  0  0  0  0  0  0  0  0
  2  1  2  0
  4  3  2  0
  5  3  1  0
  6  1  1  0
  7  2  1  0
  9  8  1  0
 11 10  1  0
 13  4  1  0
 13 12  2  0
 14  5  2  0
 14 12  1  0
 15  6  2  0
 16  7  2  0
 16 15  1  0
 17 15  1  0
 18 13  1  0
 19 18  1  0
 20 18  1  0
 21 18  1  0
 22 14  1  0
 22 16  1  0
 23  8  1  0
 24 17  2  0
 25  9  1  0
 25 10  1  0
 26 11  1  0
 26 17  1  0
M  END
$$$$
