
     RDKit          2D

  5  4  0  0  0  0  0  0  0  0999 V2000
   -1.1785    0.8250    0.0000 O   0  0  0  0  0  0  0  0  0  0  0  0
   -1.1785   -0.8250    0.0000 O   0  0  0  0  0  0  0  0  0  0  0  0
   -2.0035    0.0000    0.0000 O   0  0  0  0  0  0  0  0  0  0  0  0
   -0.3535    0.0000    0.0000 O   0  0  0  0  0  0  0  0  0  0  0  0
   -1.1785    0.0000    0.0000 S   0  0  0  0  0  0  0  0  0  0  0  0
  5  1  1  0
  5  2  1  0
  5  3  2  0
  5  4  2  0
M  CHG  2   1  -1   2  -1
M  END
$$$$
