
     RDKit          2D

 35 41  0  0  1  0  0  0  0  0999 V2000
    0.1278    0.0746    0.0000 O   0  0  0  0  0  0  0  0  0  0  0  0
   -0.0288   -0.7354    0.0000 C   0  0  0  0  0  0  0  0  0  0  0  0
   -0.7762   -1.0848    0.0000 N   0  0  0  0  0  0  0  0  0  0  0  0
   -0.6749   -1.9036    0.0000 C   0  0  0  0  0  0  0  0  0  0  0  0
   -1.2777   -2.4668    0.0000 O   0  0  0  0  0  0  0  0  0  0  0  0
    0.1351   -2.0602    0.0000 C   0  0  0  0  0  0  0  0  0  0  0  0
    0.5344   -1.3383    0.0000 C   0  0  0  0  0  0  0  0  0  0  0  0
    1.1407   -0.9495    0.0000 C   0  0  0  0  0  0  0  0  0  0  0  0
    1.9362   -1.4148    0.0000 C   0  0  0  0  0  0  0  0  0  0  0  0
    1.6411   -2.0402    0.0000 C   0  0  0  0  0  0  0  0  0  0  0  0
    0.9106   -1.6699    0.0000 C   0  0  0  0  0  0  0  0  0  0  0  0
    0.9807   -0.1341    0.0000 C   0  0  0  0  0  0  0  0  0  0  0  0
   -1.4982   -0.6855    0.0000 C   0  0  0  0  0  0  0  0  0  0  0  0
   -2.2049   -1.1111    0.0000 C   0  0  0  0  0  0  0  0  0  0  0  0
   -2.1897   -1.9360    0.0000 C   0  0  0  0  0  0  0  0  0  0  0  0
   -2.8965   -2.3615    0.0000 C   0  0  0  0  0  0  0  0  0  0  0  0
   -3.6184   -1.9623    0.0000 C   0  0  0  0  0  0  0  0  0  0  0  0
   -3.6336   -1.1374    0.0000 C   0  0  0  0  0  0  0  0  0  0  0  0
   -2.9269   -0.7118    0.0000 C   0  0  0  0  0  0  0  0  0  0  0  0
   -2.9420    0.1130    0.0000 C   0  0  0  0  0  0  0  0  0  0  0  0
   -2.2353    0.5386    0.0000 N   0  0  0  0  0  0  0  0  0  0  0  0
   -2.2505    1.3635    0.0000 C   0  0  0  0  0  0  0  0  0  0  0  0
   -1.5437    1.7891    0.0000 C   0  0  0  0  0  0  0  0  0  0  0  0
   -0.8218    1.3898    0.0000 N   0  0  0  0  0  0  0  0  0  0  0  0
   -0.1150    1.8154    0.0000 C   0  0  0  0  0  0  0  0  0  0  0  0
   -0.0439    2.6373    0.0000 N   0  0  0  0  0  0  0  0  0  0  0  0
    0.7598    2.8236    0.0000 S   0  0  0  0  0  0  0  0  0  0  0  0
    1.1854    2.1169    0.0000 C   0  0  0  0  0  0  0  0  0  0  0  0
    1.9954    1.9602    0.0000 C   0  0  0  0  0  0  0  0  0  0  0  0
    2.2647    1.1804    0.0000 C   0  0  0  0  0  0  0  0  0  0  0  0
    1.7240    0.5573    0.0000 C   0  0  0  0  0  0  0  0  0  0  0  0
    0.9141    0.7139    0.0000 C   0  0  0  0  0  0  0  0  0  0  0  0
    0.6447    1.4937    0.0000 C   0  0  0  0  0  0  0  0  0  0  0  0
   -0.8066    0.5649    0.0000 C   0  0  0  0  0  0  0  0  0  0  0  0
   -1.5133    0.1393    0.0000 C   0  0  0  0  0  0  0  0  0  0  0  0
  1  2  2  0
  2  3  1  0
  3  4  1  0
  4  5  2  0
  6  4  1  1
  6  7  1  0
  7  2  1  1
  7  8  1  0
  8  9  1  1
  9 10  1  0
 11 10  1  6
  6 11  1  0
 11 12  1  0
  8 12  1  0
  3 13  1  0
 14 13  1  6
 14 15  1  0
 15 16  1  0
 16 17  1  0
 17 18  1  0
 18 19  1  0
 14 19  1  0
 19 20  1  1
 20 21  1  0
 21 22  1  0
 22 23  1  0
 23 24  1  0
 24 25  1  0
 25 26  2  0
 26 27  1  0
 27 28  1  0
 28 29  2  0
 29 30  1  0
 30 31  2  0
 31 32  1  0
 32 33  2  0
 28 33  1  0
 25 33  1  0
 24 34  1  0
 34 35  1  0
 21 35  1  0
M  END
$$$$
