9677
     RDKit          2D

 31 34  0  0  1  0  0  0  0  0999 V2000
    7.1363   -0.5900    0.0000 O   0  0  0  0  0  0  0  0  0  0  0  0
    1.6500   -4.1438    0.0000 O   0  0  0  0  0  0  0  0  0  0  0  0
    8.4945   -1.0339    0.0000 O   0  0  0  0  0  0  0  0  0  0  0  0
    6.0994   -2.4506    0.0000 C   0  0  0  0  0  0  0  0  0  0  0  0
    6.0994   -1.6256    0.0000 C   0  0  0  0  0  0  0  0  0  0  0  0
    5.3849   -2.8631    0.0000 C   0  0  0  0  0  0  0  0  0  0  0  0
    4.6704   -2.4506    0.0000 C   0  0  0  0  0  0  0  0  0  0  0  0
    5.3849   -1.2131    0.0000 C   0  0  0  0  0  0  0  0  0  0  0  0
    6.8800   -1.3742    0.0000 C   0  0  0  0  0  0  0  0  0  0  0  0
    6.8800   -2.7020    0.0000 C   0  0  0  0  0  0  0  0  0  0  0  0
    4.6704   -1.6256    0.0000 C   0  0  0  0  0  0  0  0  0  0  0  0
    3.9196   -2.8687    0.0000 C   0  0  0  0  0  0  0  0  0  0  0  0
    7.3615   -2.0381    0.0000 C   0  0  0  0  0  0  0  0  0  0  0  0
    5.3981   -3.7224    0.0000 C   0  0  0  0  0  0  0  0  0  0  0  0
    6.0994   -0.8006    0.0000 C   0  0  0  0  0  0  0  0  0  0  0  0
    4.6573   -4.1577    0.0000 C   0  0  0  0  0  0  0  0  0  0  0  0
    3.9130   -3.7280    0.0000 C   0  0  0  0  0  0  0  0  0  0  0  0
    3.1550   -2.4034    0.0000 C   0  0  0  0  0  0  0  0  0  0  0  0
    2.3730   -2.8389    0.0000 C   0  0  0  0  0  0  0  0  0  0  0  0
    3.1413   -4.1816    0.0000 C   0  0  0  0  0  0  0  0  0  0  0  0
    2.3661   -3.7341    0.0000 C   0  0  0  0  0  0  0  0  0  0  0  0
    7.9436   -0.4198    0.0000 C   0  0  0  0  0  0  0  0  0  0  0  0
    8.1998    0.3643    0.0000 C   0  0  0  0  0  0  0  0  0  0  0  0
    9.0071    0.5344    0.0000 C   0  0  0  0  0  0  0  0  0  0  0  0
    9.2634    1.3186    0.0000 C   0  0  0  0  0  0  0  0  0  0  0  0
   10.0707    1.4888    0.0000 C   0  0  0  0  0  0  0  0  0  0  0  0
   10.3270    2.2730    0.0000 C   0  0  0  0  0  0  0  0  0  0  0  0
   11.1343    2.4431    0.0000 C   0  0  0  0  0  0  0  0  0  0  0  0
   11.3906    3.2273    0.0000 C   0  0  0  0  0  0  0  0  0  0  0  0
   12.1978    3.3974    0.0000 C   0  0  0  0  0  0  0  0  0  0  0  0
   12.4542    4.1816    0.0000 C   0  0  0  0  0  0  0  0  0  0  0  0
  9  1  1  1
  1 22  1  0
  2 21  2  0
  3 22  2  0
  4  5  1  0
  4  6  1  0
  4 10  1  1
  5  8  1  0
  5  9  1  0
  5 15  1  1
  6  7  1  0
  6 14  1  6
  7 11  1  1
  7 12  1  0
  8 11  1  0
  9 13  1  0
 10 13  1  0
 12 17  1  0
 12 18  1  6
 14 16  1  0
 16 17  1  0
 17 20  2  0
 18 19  1  0
 19 21  1  0
 20 21  1  0
 22 23  1  0
 23 24  1  0
 24 25  1  0
 25 26  1  0
 26 27  1  0
 27 28  1  0
 28 29  1  0
 29 30  1  0
 30 31  1  0
M  END
$$$$
