
     RDKit          2D

 21 20  0  0  0  0  0  0  0  0999 V2000
   -0.0287   -0.3779    0.0000 C   0  0  0  0  0  0  0  0  0  0  0  0
   -0.0179    0.4462    0.0000 C   0  0  0  0  0  0  0  0  0  0  0  0
   -0.6765    0.8962    0.0000 C   0  0  0  0  0  0  0  0  0  0  0  0
   -1.4108    0.5183    0.0000 C   0  0  0  0  0  0  0  0  0  0  0  0
    0.6730   -0.7881    0.0000 N   0  0  0  0  0  0  0  0  0  0  0  0
   -0.6226    1.7060    0.0000 N   0  0  0  0  0  0  0  0  0  0  0  0
    1.4180   -2.0623    0.0000 C   0  0  0  0  0  0  0  0  0  0  0  0
    0.6946   -1.6915    0.0000 C   0  0  0  0  0  0  0  0  0  0  0  0
   -1.3028    2.1703    0.0000 C   0  0  0  0  0  0  0  0  0  0  0  0
   -1.4684   -2.1378    0.0000 C   0  0  0  0  0  0  0  0  0  0  0  0
   -0.7953   -0.7450    0.0000 O   0  0  0  0  0  0  0  0  0  0  0  0
   -1.4000   -0.2879    0.0000 O   0  0  0  0  0  0  0  0  0  0  0  0
    1.4288   -2.9117    0.0000 O   0  0  0  0  0  0  0  0  0  0  0  0
   -1.3028    2.9801    0.0000 O   0  0  0  0  0  0  0  0  0  0  0  0
   -1.4684   -2.9801    0.0000 O   0  0  0  0  0  0  0  0  0  0  0  0
   -0.0504   -2.0623    0.0000 C   0  0  0  0  0  0  0  0  0  0  0  0
   -0.6981   -1.7276    0.0000 C   0  0  0  0  0  0  0  0  0  0  0  0
   -2.1919    0.8854    0.0000 O   0  0  0  0  0  0  0  0  0  0  0  0
    2.1919   -1.6520    0.0000 O   0  0  0  0  0  0  0  0  0  0  0  0
   -2.1595   -1.7024    0.0000 O   0  0  0  0  0  0  0  0  0  0  0  0
   -2.0587    1.8031    0.0000 C   0  0  0  0  0  0  0  0  0  0  0  0
  2  1  1  0
  3  2  1  1
  4  3  1  0
  5  1  1  0
  3  6  1  0
  7  8  1  0
  8  5  1  0
  9  6  1  0
 10 17  1  0
 11  1  2  0
 12  4  2  0
 13  7  2  0
 14  9  2  0
 15 10  2  0
  8 16  1  6
 17 16  1  0
 18  4  1  0
 19  7  1  0
 20 10  1  0
 21  9  1  0
M  END
$$$$
