
     RDKit          2D

 23 25  0  0  0  0  0  0  0  0999 V2000
    0.1690   -1.5392    0.0000 C   0  0  0  0  0  0  0  0  0  0  0  0
    0.9939   -1.5392    0.0000 C   0  0  0  0  0  0  0  0  0  0  0  0
    1.3247   -0.0899    0.0000 C   0  0  0  0  0  0  0  0  0  0  0  0
    0.5752   -1.0929    0.0000 N   0  0  0  0  0  0  0  0  0  0  0  0
    0.5815    0.2680    0.0000 C   0  0  0  0  0  0  0  0  0  0  0  0
   -0.1617   -0.0899    0.0000 C   0  0  0  0  0  0  0  0  0  0  0  0
   -0.8762    1.1475    0.0000 O   0  0  0  0  0  0  0  0  0  0  0  0
   -0.8762    0.3225    0.0000 C   0  0  0  0  0  0  0  0  0  0  0  0
   -1.5907   -0.0899    0.0000 O   0  0  0  0  0  0  0  0  0  0  0  0
   -2.3052    0.3225    0.0000 C   0  0  0  0  0  0  0  0  0  0  0  0
   -0.3453   -0.8941    0.0000 C   0  0  0  0  0  0  0  0  0  0  0  0
    1.5083   -0.8941    0.0000 C   0  0  0  0  0  0  0  0  0  0  0  0
    0.5752   -1.9179    0.0000 C   0  0  0  0  0  0  0  0  0  0  0  0
   -0.1392   -2.3304    0.0000 C   0  0  0  0  0  0  0  0  0  0  0  0
   -0.1392   -3.1554    0.0000 C   0  0  0  0  0  0  0  0  0  0  0  0
   -0.8536   -3.5680    0.0000 F   0  0  0  0  0  0  0  0  0  0  0  0
    0.5815    2.7430    0.0000 C   0  0  0  0  0  0  0  0  0  0  0  0
   -0.1328    2.3305    0.0000 C   0  0  0  0  0  0  0  0  0  0  0  0
   -0.1328    1.5055    0.0000 C   0  0  0  0  0  0  0  0  0  0  0  0
    0.5815    1.0930    0.0000 C   0  0  0  0  0  0  0  0  0  0  0  0
    1.2960    1.5055    0.0000 C   0  0  0  0  0  0  0  0  0  0  0  0
    1.2960    2.3305    0.0000 C   0  0  0  0  0  0  0  0  0  0  0  0
    0.5815    3.5680    0.0000 I   0  0  0  0  0  0  0  0  0  0  0  0
  5  6  1  0
  3  5  1  0
  6 11  1  0
 11  1  1  6
  1  2  1  0
 12  2  1  6
 12  3  1  0
 11  4  1  0
 12  4  1  0
  5 20  1  1
  6  8  1  1
  8  7  2  0
  8  9  1  0
  9 10  1  0
  4 13  1  0
 13 14  1  0
 14 15  1  0
 15 16  1  0
 17 18  2  0
 18 19  1  0
 19 20  2  0
 20 21  1  0
 21 22  2  0
 17 22  1  0
 17 23  1  0
M  ISO  1  23 123
M  END
$$$$
