
     RDKit          2D

 39 40  0  0  0  0  0  0  0  0999 V2000
    6.4302    8.6625    0.0000 C   0  0  0  0  0  0  0  0  0  0  0  0
    7.8591    8.6625    0.0000 C   0  0  0  0  0  0  0  0  0  0  0  0
    5.7157    8.2500    0.0000 C   0  0  0  0  0  0  0  0  0  0  0  0
    8.5736    8.2500    0.0000 C   0  0  0  0  0  0  0  0  0  0  0  0
    2.1434   11.1375    0.0000 C   0  0  0  0  0  0  0  0  0  0  0  0
   13.5749    8.6625    0.0000 C   0  0  0  0  0  0  0  0  0  0  0  0
    4.2868    8.2500    0.0000 C   0  0  0  0  0  0  0  0  0  0  0  0
   10.0025    8.2500    0.0000 C   0  0  0  0  0  0  0  0  0  0  0  0
    1.4289   10.7250    0.0000 C   0  0  0  0  0  0  0  0  0  0  0  0
   13.5749    9.4875    0.0000 C   0  0  0  0  0  0  0  0  0  0  0  0
    2.8578   10.7250    0.0000 C   0  0  0  0  0  0  0  0  0  0  0  0
   12.8604    8.2500    0.0000 C   0  0  0  0  0  0  0  0  0  0  0  0
    3.5723    8.6625    0.0000 C   0  0  0  0  0  0  0  0  0  0  0  0
   10.7170    8.6625    0.0000 C   0  0  0  0  0  0  0  0  0  0  0  0
    1.4289    9.9000    0.0000 C   0  0  0  0  0  0  0  0  0  0  0  0
   12.8604    9.9000    0.0000 C   0  0  0  0  0  0  0  0  0  0  0  0
    2.1434    9.4875    0.0000 C   0  0  0  0  0  0  0  0  0  0  0  0
   12.1460    9.4875    0.0000 C   0  0  0  0  0  0  0  0  0  0  0  0
    2.8578    9.9000    0.0000 C   0  0  0  0  0  0  0  0  0  0  0  0
   12.1460    8.6625    0.0000 C   0  0  0  0  0  0  0  0  0  0  0  0
    0.7144    9.4875    0.0000 C   0  0  0  0  0  0  0  0  0  0  0  0
   12.8604   10.7250    0.0000 C   0  0  0  0  0  0  0  0  0  0  0  0
    0.7144   11.1375    0.0000 I   0  0  0  0  0  0  0  0  0  0  0  0
   14.2894    9.9000    0.0000 I   0  0  0  0  0  0  0  0  0  0  0  0
    3.5723   11.1375    0.0000 I   0  0  0  0  0  0  0  0  0  0  0  0
   12.8604    7.4250    0.0000 I   0  0  0  0  0  0  0  0  0  0  0  0
    2.1434    8.6625    0.0000 I   0  0  0  0  0  0  0  0  0  0  0  0
   11.4315    9.9000    0.0000 I   0  0  0  0  0  0  0  0  0  0  0  0
    3.5723    9.4875    0.0000 N   0  0  0  0  0  0  0  0  0  0  0  0
   11.4315    8.2500    0.0000 N   0  0  0  0  0  0  0  0  0  0  0  0
    2.8578    8.2500    0.0000 O   0  0  0  0  0  0  0  0  0  0  0  0
   10.7170    9.4875    0.0000 O   0  0  0  0  0  0  0  0  0  0  0  0
    0.7144    8.6625    0.0000 O   0  0  0  0  0  0  0  0  0  0  0  0
    0.0000    9.9000    0.0000 O   0  0  0  0  0  0  0  0  0  0  0  0
   12.1460   11.1375    0.0000 O   0  0  0  0  0  0  0  0  0  0  0  0
   13.5749   11.1375    0.0000 O   0  0  0  0  0  0  0  0  0  0  0  0
    7.1447    8.2500    0.0000 O   0  0  0  0  0  0  0  0  0  0  0  0
    5.0012    8.6625    0.0000 O   0  0  0  0  0  0  0  0  0  0  0  0
    9.2881    8.6625    0.0000 O   0  0  0  0  0  0  0  0  0  0  0  0
  3  1  1  0
  4  2  1  0
  9  5  2  0
 10  6  2  0
 11  5  1  0
 12  6  1  0
 13  7  1  0
 14  8  1  0
 15  9  1  0
 16 10  1  0
 17 15  2  0
 18 16  2  0
 19 11  2  0
 19 17  1  0
 20 12  2  0
 20 18  1  0
 21 15  1  0
 22 16  1  0
 23  9  1  0
 24 10  1  0
 25 11  1  0
 26 12  1  0
 27 17  1  0
 28 18  1  0
 29 13  2  3
 29 19  1  0
 30 14  2  3
 30 20  1  0
 31 13  1  0
 32 14  1  0
 33 21  2  0
 34 21  1  0
 35 22  2  0
 36 22  1  0
 37  1  1  0
 37  2  1  0
 38  3  1  0
 38  7  1  0
 39  4  1  0
 39  8  1  0
M  END
$$$$
