
     RDKit          2D

 21 23  0  0  0  0  0  0  0  0999 V2000
    0.8352   -1.9873    0.0000 N   0  0  0  0  0  0  0  0  0  0  0  0
    1.5026   -2.4722    0.0000 C   0  0  0  0  0  0  0  0  0  0  0  0
    1.2477   -3.2568    0.0000 C   0  0  0  0  0  0  0  0  0  0  0  0
    0.4227   -3.2568    0.0000 N   0  0  0  0  0  0  0  0  0  0  0  0
    0.1676   -2.4722    0.0000 C   0  0  0  0  0  0  0  0  0  0  0  0
    0.8352   -1.1623    0.0000 C   0  0  0  0  0  0  0  0  0  0  0  0
    0.1207   -0.7498    0.0000 C   0  0  0  0  0  0  0  0  0  0  0  0
    1.5497   -0.7498    0.0000 C   0  0  0  0  0  0  0  0  0  0  0  0
   -0.7724    0.2421    0.0000 C   0  0  0  0  0  0  0  0  0  0  0  0
    0.0345    0.0706    0.0000 S   0  0  0  0  0  0  0  0  0  0  0  0
   -0.6329   -1.0854    0.0000 S   0  0  0  0  0  0  0  0  0  0  0  0
   -1.1850   -0.4723    0.0000 C   0  0  0  0  0  0  0  0  0  0  0  0
   -1.1080    0.9958    0.0000 C   0  0  0  0  0  0  0  0  0  0  0  0
   -0.9586    2.4169    0.0000 C   0  0  0  0  0  0  0  0  0  0  0  0
   -0.6230    1.6632    0.0000 C   0  0  0  0  0  0  0  0  0  0  0  0
   -1.9284    1.0820    0.0000 C   0  0  0  0  0  0  0  0  0  0  0  0
   -2.2641    1.8357    0.0000 C   0  0  0  0  0  0  0  0  0  0  0  0
   -1.7791    2.5031    0.0000 C   0  0  0  0  0  0  0  0  0  0  0  0
    0.1972    1.5770    0.0000 Cl  0  0  0  0  0  0  0  0  0  0  0  0
   -2.1147    3.2568    0.0000 Cl  0  0  0  0  0  0  0  0  0  0  0  0
    2.2641   -0.3373    0.0000 N   0  0  0  0  0  0  0  0  0  0  0  0
  1  2  1  0
  1  5  1  0
  2  3  2  0
  3  4  1  0
  4  5  2  0
  1  6  1  0
  6  7  2  0
  6  8  1  0
 10  7  1  0
  7 11  1  0
  9 10  1  0
  9 12  1  0
 11 12  1  0
  9 13  1  1
 15 13  1  0
 13 16  2  0
 14 15  2  0
 14 18  1  0
 16 17  1  0
 17 18  2  0
 15 19  1  0
 18 20  1  0
  8 21  3  0
M  END
$$$$
