
     RDKit          2D

 22 22  0  0  0  0  0  0  0  0999 V2000
    3.9849    4.5054    0.0000 O   0  0  0  0  0  0  0  0  0  0  0  0
    6.4600    3.0765    0.0000 O   0  0  0  0  0  0  0  0  0  0  0  0
    5.2224    4.6160    0.0000 N   0  0  0  0  0  0  0  0  0  0  0  0
    5.2224    3.7910    0.0000 C   0  0  0  0  0  0  0  0  0  0  0  0
    5.2224    2.9659    0.0000 C   0  0  0  0  0  0  0  0  0  0  0  0
    4.5080    2.5534    0.0000 C   0  0  0  0  0  0  0  0  0  0  0  0
    4.3974    3.7910    0.0000 C   0  0  0  0  0  0  0  0  0  0  0  0
    6.0475    3.7910    0.0000 C   0  0  0  0  0  0  0  0  0  0  0  0
    3.7935   -1.9842    0.0000 C   0  0  0  0  0  0  0  0  0  0  0  0
    3.7935   -1.1592    0.0000 C   0  0  0  0  0  0  0  0  0  0  0  0
    3.0791   -2.3967    0.0000 C   0  0  0  0  0  0  0  0  0  0  0  0
    4.5080    1.7284    0.0000 C   0  0  0  0  0  0  0  0  0  0  0  0
    4.5080   -0.7466    0.0000 C   0  0  0  0  0  0  0  0  0  0  0  0
    3.0791   -3.2217    0.0000 C   0  0  0  0  0  0  0  0  0  0  0  0
    4.5080    0.0784    0.0000 C   0  0  0  0  0  0  0  0  0  0  0  0
    2.3645   -3.6342    0.0000 C   0  0  0  0  0  0  0  0  0  0  0  0
    3.7935    1.3159    0.0000 C   0  0  0  0  0  0  0  0  0  0  0  0
    5.2224    1.3159    0.0000 C   0  0  0  0  0  0  0  0  0  0  0  0
    3.7935    0.4909    0.0000 C   0  0  0  0  0  0  0  0  0  0  0  0
    5.2224    0.4909    0.0000 C   0  0  0  0  0  0  0  0  0  0  0  0
    2.3645   -4.4592    0.0000 C   0  0  0  0  0  0  0  0  0  0  0  0
    1.6500   -4.8717    0.0000 C   0  0  0  0  0  0  0  0  0  0  0  0
  1  7  1  0
  2  8  1  0
  3  4  1  0
  4  5  1  0
  4  7  1  0
  4  8  1  0
  5  6  1  0
  6 12  1  0
  9 10  1  0
  9 11  1  0
 10 13  1  0
 11 14  1  0
 12 17  2  0
 12 18  1  0
 13 15  1  0
 14 16  1  0
 15 19  2  0
 15 20  1  0
 16 21  1  0
 17 19  1  0
 18 20  2  0
 21 22  1  0
M  END
$$$$
