
     RDKit          2D

 19 20  0  0  0  0  0  0  0  0999 V2000
    3.2251    0.4423    0.0000 C   0  0  0  0  0  0  0  0  0  0  0  0
   -1.0223    2.0915    0.0000 C   0  0  0  0  0  0  0  0  0  0  0  0
    2.4405    0.1874    0.0000 C   0  0  0  0  0  0  0  0  0  0  0  0
   -2.8896   -2.0053    0.0000 C   0  0  0  0  0  0  0  0  0  0  0  0
   -2.0691   -2.0915    0.0000 C   0  0  0  0  0  0  0  0  0  0  0  0
   -3.2251   -1.2516    0.0000 C   0  0  0  0  0  0  0  0  0  0  0  0
   -1.5841   -1.4241    0.0000 C   0  0  0  0  0  0  0  0  0  0  0  0
   -2.7402   -0.5841    0.0000 C   0  0  0  0  0  0  0  0  0  0  0  0
    0.4297    1.0365    0.0000 C   0  0  0  0  0  0  0  0  0  0  0  0
   -0.3548    0.7816    0.0000 C   0  0  0  0  0  0  0  0  0  0  0  0
    1.0428    0.4845    0.0000 C   0  0  0  0  0  0  0  0  0  0  0  0
   -1.6897    0.7816    0.0000 C   0  0  0  0  0  0  0  0  0  0  0  0
   -1.4348   -0.0029    0.0000 C   0  0  0  0  0  0  0  0  0  0  0  0
   -1.0223    1.2665    0.0000 N   0  0  0  0  0  0  0  0  0  0  0  0
   -1.9197   -0.6704    0.0000 N   0  0  0  0  0  0  0  0  0  0  0  0
    0.8712   -0.3224    0.0000 O   0  0  0  0  0  0  0  0  0  0  0  0
   -2.4743    1.0365    0.0000 O   0  0  0  0  0  0  0  0  0  0  0  0
    1.8274    0.7394    0.0000 O   0  0  0  0  0  0  0  0  0  0  0  0
   -0.6098   -0.0029    0.0000 S   0  0  0  0  0  0  0  0  0  0  0  0
  3  1  1  0
  5  4  1  0
  6  4  1  0
  7  5  1  0
  8  6  1  0
 10  9  2  0
 11  9  1  0
 13 12  1  0
 14  2  1  0
 14 10  1  0
 14 12  1  0
 15  7  1  0
 15  8  1  0
 15 13  1  0
 16 11  2  0
 17 12  2  0
 18  3  1  0
 18 11  1  0
 19 10  1  0
 19 13  1  0
M  END
$$$$
