
     RDKit          2D

 26 28  0  0  0  0  0  0  0  0999 V2000
    0.0000    0.8250    0.0000 C   0  0  0  0  0  0  0  0  0  0  0  0
    0.7145    0.4125    0.0000 C   0  0  0  0  0  0  0  0  0  0  0  0
    0.7145   -0.4125    0.0000 C   0  0  0  0  0  0  0  0  0  0  0  0
    0.0000   -0.8250    0.0000 C   0  0  0  0  0  0  0  0  0  0  0  0
   -0.7145   -0.4125    0.0000 C   0  0  0  0  0  0  0  0  0  0  0  0
   -0.7145    0.4125    0.0000 C   0  0  0  0  0  0  0  0  0  0  0  0
    4.3974   -0.4125    0.0000 N   0  0  0  0  0  0  0  0  0  0  0  0
    4.3974    0.4125    0.0000 C   0  0  0  0  0  0  0  0  0  0  0  0
    3.5724   -0.4125    0.0000 C   0  0  0  0  0  0  0  0  0  0  0  0
    3.5724    0.4125    0.0000 C   0  0  0  0  0  0  0  0  0  0  0  0
    5.1820   -0.6674    0.0000 C   0  0  0  0  0  0  0  0  0  0  0  0
    5.1820    0.6674    0.0000 S   0  0  0  0  0  0  0  0  0  0  0  0
    5.6669    0.0000    0.0000 C   0  0  0  0  0  0  0  0  0  0  0  0
    2.8579    0.8250    0.0000 N   0  0  0  0  0  0  0  0  0  0  0  0
    2.1434    0.4125    0.0000 C   0  0  0  0  0  0  0  0  0  0  0  0
    0.7145    2.0625    0.0000 N   0  0  0  0  0  0  0  0  0  0  0  0
    1.4289    0.8250    0.0000 C   0  0  0  0  0  0  0  0  0  0  0  0
    5.4369   -1.4521    0.0000 C   0  0  0  0  0  0  0  0  0  0  0  0
    0.0000    2.4750    0.0000 N   0  0  0  0  0  0  0  0  0  0  0  0
    1.4289    1.6500    0.0000 N   0  0  0  0  0  0  0  0  0  0  0  0
    2.1434   -0.4125    0.0000 O   0  0  0  0  0  0  0  0  0  0  0  0
    6.2439   -1.6236    0.0000 O   0  0  0  0  0  0  0  0  0  0  0  0
    4.8849   -2.0652    0.0000 O   0  0  0  0  0  0  0  0  0  0  0  0
    6.3857   -0.4050    0.0000 C   0  0  0  0  0  0  0  0  0  0  0  0
    6.3857    0.4050    0.0000 C   0  0  0  0  0  0  0  0  0  0  0  0
    2.9890   -0.9959    0.0000 O   0  0  0  0  0  0  0  0  0  0  0  0
  1  2  2  0
  2 17  1  0
  3  2  1  0
  6  1  1  0
  4  3  2  0
  5  6  2  0
  5  4  1  0
  8  7  1  0
  9  7  1  0
 11  7  1  0
  8 12  1  1
  8 10  1  0
 10  9  1  0
 10 14  1  1
 13 11  1  0
 11 18  1  6
 13 12  1  0
 24 13  1  0
 25 13  1  0
 15 14  1  0
 17 15  1  0
 21 15  2  0
 20 16  2  3
 19 16  2  0
 17 20  1  1
 22 18  1  0
 23 18  2  0
  9 26  2  0
M  CHG  2  16   1  19  -1
M  END
$$$$
