PXB
     RDKit          2D

 26 28  0  0  0  0  0  0  0  0999 V2000
   -3.7588    1.5067    0.0000 C   0  0  0  0  0  0  0  0  0  0  0  0
   -3.0443    1.9192    0.0000 C   0  0  0  0  0  0  0  0  0  0  0  0
   -2.3298    1.5067    0.0000 C   0  0  0  0  0  0  0  0  0  0  0  0
   -2.3298    0.6817    0.0000 O   0  0  0  0  0  0  0  0  0  0  0  0
   -1.6154    1.9192    0.0000 N   0  0  0  0  0  0  0  0  0  0  0  0
   -0.9009    1.5067    0.0000 S   0  0  0  0  0  0  0  0  0  0  0  0
   -1.3134    0.7923    0.0000 O   0  0  0  0  0  0  0  0  0  0  0  0
   -0.4884    2.2212    0.0000 O   0  0  0  0  0  0  0  0  0  0  0  0
   -0.1864    1.0942    0.0000 C   0  0  0  0  0  0  0  0  0  0  0  0
    0.5280    1.5067    0.0000 C   0  0  0  0  0  0  0  0  0  0  0  0
    1.2425    1.0942    0.0000 C   0  0  0  0  0  0  0  0  0  0  0  0
    1.2425    0.2692    0.0000 C   0  0  0  0  0  0  0  0  0  0  0  0
    0.5280   -0.1433    0.0000 C   0  0  0  0  0  0  0  0  0  0  0  0
   -0.1864    0.2692    0.0000 C   0  0  0  0  0  0  0  0  0  0  0  0
    1.9570   -0.1433    0.0000 C   0  0  0  0  0  0  0  0  0  0  0  0
    2.7107    0.1923    0.0000 C   0  0  0  0  0  0  0  0  0  0  0  0
    2.0432   -0.9637    0.0000 C   0  0  0  0  0  0  0  0  0  0  0  0
    3.2627   -0.4208    0.0000 O   0  0  0  0  0  0  0  0  0  0  0  0
    2.8502   -1.1353    0.0000 N   0  0  0  0  0  0  0  0  0  0  0  0
    1.4301   -1.5158    0.0000 C   0  0  0  0  0  0  0  0  0  0  0  0
    1.6016   -2.3227    0.0000 C   0  0  0  0  0  0  0  0  0  0  0  0
    0.9886   -2.8748    0.0000 C   0  0  0  0  0  0  0  0  0  0  0  0
    0.2039   -2.6198    0.0000 C   0  0  0  0  0  0  0  0  0  0  0  0
    0.0324   -1.8129    0.0000 C   0  0  0  0  0  0  0  0  0  0  0  0
    0.6455   -1.2608    0.0000 C   0  0  0  0  0  0  0  0  0  0  0  0
    2.8822    0.9993    0.0000 C   0  0  0  0  0  0  0  0  0  0  0  0
  1  2  1  0
  2  3  1  0
  3  4  2  0
  3  5  1  0
  5  6  1  0
  6  7  2  0
  6  8  2  0
  6  9  1  0
  9 10  2  0
  9 14  1  0
 10 11  1  0
 11 12  2  0
 12 13  1  0
 12 15  1  0
 13 14  2  0
 15 16  2  0
 15 17  1  0
 16 18  1  0
 16 26  1  0
 17 19  2  0
 17 20  1  0
 18 19  1  0
 20 21  2  0
 20 25  1  0
 21 22  1  0
 22 23  2  0
 23 24  1  0
 24 25  2  0
M  END
$$$$
