
     RDKit          2D

 21 23  0  0  0  0  0  0  0  0999 V2000
    0.7576    0.3618    0.0000 N   0  0  0  0  0  0  0  0  0  0  0  0
    0.0433   -0.0331    0.0000 C   0  0  0  0  0  0  0  0  0  0  0  0
    2.1891    1.1903    0.0000 N   0  0  0  0  0  0  0  0  0  0  0  0
   -0.6649    0.3618    0.0000 C   0  0  0  0  0  0  0  0  0  0  0  0
    0.7576    1.1903    0.0000 C   0  0  0  0  0  0  0  0  0  0  0  0
    1.4748   -0.0331    0.0000 C   0  0  0  0  0  0  0  0  0  0  0  0
    0.0433   -0.8587    0.0000 C   0  0  0  0  0  0  0  0  0  0  0  0
   -1.3852   -0.0331    0.0000 C   0  0  0  0  0  0  0  0  0  0  0  0
   -0.6649    1.1903    0.0000 C   0  0  0  0  0  0  0  0  0  0  0  0
    1.4748    1.6031    0.0000 C   0  0  0  0  0  0  0  0  0  0  0  0
    2.1891    0.3618    0.0000 C   0  0  0  0  0  0  0  0  0  0  0  0
   -2.0964    1.1903    0.0000 C   0  0  0  0  0  0  0  0  0  0  0  0
   -1.3852    1.6031    0.0000 C   0  0  0  0  0  0  0  0  0  0  0  0
   -2.0964    0.3618    0.0000 C   0  0  0  0  0  0  0  0  0  0  0  0
   -2.8107    1.6031    0.0000 Cl  0  0  0  0  0  0  0  0  0  0  0  0
    2.9092    1.6031    0.0000 C   0  0  0  0  0  0  0  0  0  0  0  0
   -0.6649   -1.2803    0.0000 C   0  0  0  0  0  0  0  0  0  0  0  0
    0.7576   -1.2803    0.0000 C   0  0  0  0  0  0  0  0  0  0  0  0
   -0.6649   -2.1057    0.0000 C   0  0  0  0  0  0  0  0  0  0  0  0
    0.7576   -2.1057    0.0000 C   0  0  0  0  0  0  0  0  0  0  0  0
    0.0433   -2.5185    0.0000 C   0  0  0  0  0  0  0  0  0  0  0  0
  2  1  1  0
  3 11  1  0
  4  2  1  0
  5  1  1  0
  6  1  1  0
  7  2  1  0
  8  4  2  0
  9  4  1  0
 10  5  1  0
 11  6  1  0
 12 13  1  0
 13  9  2  0
 14  8  1  0
 15 12  1  0
 16  3  1  0
 17  7  2  0
 18  7  1  0
 19 17  1  0
 20 18  2  0
 21 19  2  0
 10  3  1  0
 14 12  2  0
 20 21  1  0
M  END
$$$$
