
     RDKit          2D

 45 45  0  0  0  0  0  0  0  0999 V2000
    4.4675    2.5381    0.0000 C   0  0  0  0  0  0  0  0  0  0  0  0
    5.7788    1.9703    0.0000 C   0  0  0  0  0  0  0  0  0  0  0  0
    2.6645   -3.4238    0.0000 C   0  0  0  0  0  0  0  0  0  0  0  0
    3.8119   -2.5720    0.0000 C   0  0  0  0  0  0  0  0  0  0  0  0
    0.8615    1.4025    0.0000 C   0  0  0  0  0  0  0  0  0  0  0  0
   -0.2858    0.5508    0.0000 C   0  0  0  0  0  0  0  0  0  0  0  0
    4.1397   -1.8150    0.0000 C   0  0  0  0  0  0  0  0  0  0  0  0
    5.2871   -0.9633    0.0000 C   0  0  0  0  0  0  0  0  0  0  0  0
    2.3367    3.0113    0.0000 C   0  0  0  0  0  0  0  0  0  0  0  0
    1.1893    2.1595    0.0000 C   0  0  0  0  0  0  0  0  0  0  0  0
    0.5337   -2.9506    0.0000 C   0  0  0  0  0  0  0  0  0  0  0  0
   -0.7775   -2.3828    0.0000 C   0  0  0  0  0  0  0  0  0  0  0  0
    5.9427    0.5508    0.0000 C   0  0  0  0  0  0  0  0  0  0  0  0
    1.3448    1.5650    0.0000 C   0  0  0  0  0  0  0  0  0  0  0  0
    1.3532   -2.8560    0.0000 C   0  0  0  0  0  0  0  0  0  0  0  0
    4.9593    1.8756    0.0000 C   0  0  0  0  0  0  0  0  0  0  0  0
    2.9923   -2.6667    0.0000 C   0  0  0  0  0  0  0  0  0  0  0  0
    0.5337    0.6454    0.0000 C   0  0  0  0  0  0  0  0  0  0  0  0
    4.4675   -1.0579    0.0000 C   0  0  0  0  0  0  0  0  0  0  0  0
    2.0089    2.2542    0.0000 C   0  0  0  0  0  0  0  0  0  0  0  0
    0.0419   -2.2881    0.0000 C   0  0  0  0  0  0  0  0  0  0  0  0
    4.6314    1.1186    0.0000 C   0  0  0  0  0  0  0  0  0  0  0  0
    2.5006   -2.0042    0.0000 C   0  0  0  0  0  0  0  0  0  0  0  0
    1.0254   -0.0169    0.0000 C   0  0  0  0  0  0  0  0  0  0  0  0
    3.9758   -0.3955    0.0000 C   0  0  0  0  0  0  0  0  0  0  0  0
    2.5006    1.5917    0.0000 C   0  0  0  0  0  0  0  0  0  0  0  0
    0.3698   -1.5311    0.0000 C   0  0  0  0  0  0  0  0  0  0  0  0
    4.7954   -0.3008    0.0000 C   0  0  0  0  0  0  0  0  0  0  0  0
    2.1728    0.8347    0.0000 C   0  0  0  0  0  0  0  0  0  0  0  0
    1.1893   -1.4364    0.0000 C   0  0  0  0  0  0  0  0  0  0  0  0
    3.8119    1.0239    0.0000 C   0  0  0  0  0  0  0  0  0  0  0  0
    2.8284   -1.2472    0.0000 C   0  0  0  0  0  0  0  0  0  0  0  0
    0.2058   -0.1116    0.0000 C   0  0  0  0  0  0  0  0  0  0  0  0
    5.1232    0.4561    0.0000 N   0  0  0  0  0  0  0  0  0  0  0  0
    1.3532    0.7400    0.0000 N   0  0  0  0  0  0  0  0  0  0  0  0
    1.6810   -2.0989    0.0000 N   0  0  0  0  0  0  0  0  0  0  0  0
    5.5825   -0.5477    0.0000 O   0  0  0  0  0  0  0  0  0  0  0  0
    2.6645    0.1722    0.0000 O   0  0  0  0  0  0  0  0  0  0  0  0
    1.5171   -0.6794    0.0000 O   0  0  0  0  0  0  0  0  0  0  0  0
    3.4841    0.2669    0.0000 O   0  0  0  0  0  0  0  0  0  0  0  0
    2.3367   -0.5847    0.0000 O   0  0  0  0  0  0  0  0  0  0  0  0
   -0.5812    0.1352    0.0000 O   0  0  0  0  0  0  0  0  0  0  0  0
    3.3202    1.6864    0.0000 O   0  0  0  0  0  0  0  0  0  0  0  0
    3.6480   -1.1525    0.0000 O   0  0  0  0  0  0  0  0  0  0  0  0
   -0.1219   -0.8686    0.0000 O   0  0  0  0  0  0  0  0  0  0  0  0
 16  1  1  0
 16  2  1  0
 17  3  1  0
 17  4  1  0
 18  5  1  0
 18  6  1  0
 19  7  1  0
 19  8  1  0
 20  9  1  0
 20 10  1  0
 21 11  1  0
 21 12  1  0
 22 16  1  6
 23 17  1  6
 24 18  1  1
 25 19  1  0
 26 20  1  0
 27 21  1  0
 28 25  1  0
 29 26  1  0
 30 27  1  0
 31 22  1  0
 32 23  1  0
 33 24  1  0
 34 13  1  0
 34 22  1  0
 34 28  1  0
 35 14  1  0
 35 24  1  0
 35 29  1  0
 36 15  1  0
 36 23  1  0
 36 30  1  0
 37 28  2  0
 38 29  2  0
 39 30  2  0
 40 31  2  0
 41 32  2  0
 42 33  2  0
 43 26  1  0
 43 31  1  0
 44 25  1  0
 44 32  1  0
 45 27  1  0
 45 33  1  0
M  END
$$$$
