
     RDKit          2D

 27 30  0  0  0  0  0  0  0  0999 V2000
    0.7124   -1.0207    0.0000 C   0  0  0  0  0  0  0  0  0  0  0  0
   -0.0125    0.2125    0.0000 N   0  0  0  0  0  0  0  0  0  0  0  0
    0.7082   -0.1958    0.0000 C   0  0  0  0  0  0  0  0  0  0  0  0
   -0.7166   -1.0248    0.0000 C   0  0  0  0  0  0  0  0  0  0  0  0
   -0.7206   -0.2040    0.0000 C   0  0  0  0  0  0  0  0  0  0  0  0
    0.0000   -1.4372    0.0000 C   0  0  0  0  0  0  0  0  0  0  0  0
    1.4248   -1.4289    0.0000 C   0  0  0  0  0  0  0  0  0  0  0  0
    2.1205    0.6291    0.0000 N   0  0  0  0  0  0  0  0  0  0  0  0
    2.1290   -0.1958    0.0000 C   0  0  0  0  0  0  0  0  0  0  0  0
   -1.4248   -1.4415    0.0000 C   0  0  0  0  0  0  0  0  0  0  0  0
   -0.0167    1.0332    0.0000 C   0  0  0  0  0  0  0  0  0  0  0  0
    1.4206    0.2208    0.0000 O   0  0  0  0  0  0  0  0  0  0  0  0
    2.1330   -1.0165    0.0000 C   0  0  0  0  0  0  0  0  0  0  0  0
   -2.1414   -1.0290    0.0000 N   0  0  0  0  0  0  0  0  0  0  0  0
    1.4290   -2.2581    0.0000 C   0  0  0  0  0  0  0  0  0  0  0  0
   -2.8538   -1.4415    0.0000 C   0  0  0  0  0  0  0  0  0  0  0  0
   -1.4248   -2.2705    0.0000 C   0  0  0  0  0  0  0  0  0  0  0  0
    0.6956    1.4498    0.0000 C   0  0  0  0  0  0  0  0  0  0  0  0
   -0.7332    1.4373    0.0000 C   0  0  0  0  0  0  0  0  0  0  0  0
    2.8497   -1.4207    0.0000 C   0  0  0  0  0  0  0  0  0  0  0  0
    2.1414   -2.6663    0.0000 C   0  0  0  0  0  0  0  0  0  0  0  0
   -2.8538   -2.2705    0.0000 C   0  0  0  0  0  0  0  0  0  0  0  0
    2.8538   -2.2497    0.0000 C   0  0  0  0  0  0  0  0  0  0  0  0
    0.6916    2.2748    0.0000 C   0  0  0  0  0  0  0  0  0  0  0  0
   -0.7416    2.2623    0.0000 C   0  0  0  0  0  0  0  0  0  0  0  0
   -2.1372   -2.6830    0.0000 C   0  0  0  0  0  0  0  0  0  0  0  0
   -0.0291    2.6830    0.0000 C   0  0  0  0  0  0  0  0  0  0  0  0
  2  3  1  0
  3  1  1  0
  4  6  1  0
  5  2  1  0
  6  1  2  0
  7  1  1  0
  8  9  3  0
  9 13  1  0
 10  4  1  0
 11  2  1  0
 12  3  2  0
 13  7  2  0
 14 10  2  0
 15  7  1  0
 16 14  1  0
 17 10  1  0
 18 11  2  0
 19 11  1  0
 20 13  1  0
 21 15  2  0
 22 16  2  0
 23 20  2  0
 24 18  1  0
 25 19  2  0
 26 17  2  0
 27 25  1  0
  4  5  2  0
 23 21  1  0
 26 22  1  0
 27 24  2  0
M  END
$$$$
