
     RDKit          2D

 10 10  0  0  0  0  0  0  0  0999 V2000
    5.6100   -2.9150    0.0000 N   0  0  0  0  0  0  0  0  0  0  0  0
    4.8955   -2.5025    0.0000 C   0  0  0  0  0  0  0  0  0  0  0  0
    4.8955   -1.6775    0.0000 C   0  0  0  0  0  0  0  0  0  0  0  0
    6.3245   -2.5025    0.0000 C   0  0  0  0  0  0  0  0  0  0  0  0
    6.3245   -1.6775    0.0000 C   0  0  0  0  0  0  0  0  0  0  0  0
    5.6100   -1.2650    0.0000 C   0  0  0  0  0  0  0  0  0  0  0  0
    5.6100   -0.4400    0.0000 O   0  0  0  0  0  0  0  0  0  0  0  0
    7.0389   -1.2650    0.0000 O   0  0  0  0  0  0  0  0  0  0  0  0
    7.0389   -2.9150    0.0000 C   0  0  0  0  0  0  0  0  0  0  0  0
    5.6100   -3.7400    0.0000 C   0  0  0  0  0  0  0  0  0  0  0  0
  1  2  1  0
  2  3  2  0
  1  4  1  0
  4  5  2  0
  5  6  1  0
  6  3  1  0
  6  7  2  0
  5  8  1  0
  4  9  1  0
  1 10  1  0
M  END
$$$$
