
     RDKit          2D

 53 58  0  0  0  0  0  0  0  0999 V2000
    5.8742   -1.5179    0.0000 C   0  0  0  0  0  0  0  0  0  0  0  0
    7.3620   -2.2919    0.0000 C   0  0  0  0  0  0  0  0  0  0  0  0
    7.3620   -1.5179    0.0000 C   0  0  0  0  0  0  0  0  0  0  0  0
    5.8742   -2.2919    0.0000 C   0  0  0  0  0  0  0  0  0  0  0  0
    6.6373   -1.1446    0.0000 C   0  0  0  0  0  0  0  0  0  0  0  0
    5.1111   -1.1446    0.0000 C   0  0  0  0  0  0  0  0  0  0  0  0
   11.1171   -0.3979    0.0000 C   0  0  0  0  0  0  0  0  0  0  0  0
    8.1305   -1.1446    0.0000 C   0  0  0  0  0  0  0  0  0  0  0  0
   11.8582   -0.0027    0.0000 C   0  0  0  0  0  0  0  0  0  0  0  0
    8.1305   -2.6598    0.0000 C   0  0  0  0  0  0  0  0  0  0  0  0
   12.6159   -0.3979    0.0000 C   0  0  0  0  0  0  0  0  0  0  0  0
    8.8607   -1.5179    0.0000 C   0  0  0  0  0  0  0  0  0  0  0  0
    8.8607   -2.2919    0.0000 C   0  0  0  0  0  0  0  0  0  0  0  0
   11.1171   -1.1720    0.0000 O   0  0  0  0  0  0  0  0  0  0  0  0
   12.6159   -1.1720    0.0000 C   0  0  0  0  0  0  0  0  0  0  0  0
    5.1111   -0.3761    0.0000 C   0  0  0  0  0  0  0  0  0  0  0  0
    3.6124    1.9132    0.0000 O   0  0  0  0  0  0  0  0  0  0  0  0
    4.3754   -2.2919    0.0000 C   0  0  0  0  0  0  0  0  0  0  0  0
   11.8582   -1.5399    0.0000 C   0  0  0  0  0  0  0  0  0  0  0  0
    4.3754   -0.0027    0.0000 C   0  0  0  0  0  0  0  0  0  0  0  0
    2.8822    2.2866    0.0000 C   0  0  0  0  0  0  0  0  0  0  0  0
   10.3595   -0.0027    0.0000 O   0  0  0  0  0  0  0  0  0  0  0  0
    2.1190    1.9132    0.0000 C   0  0  0  0  0  0  0  0  0  0  0  0
    3.6124    1.1446    0.0000 C   0  0  0  0  0  0  0  0  0  0  0  0
    3.6124   -2.6598    0.0000 O   0  0  0  0  0  0  0  0  0  0  0  0
    5.1111   -2.6598    0.0000 C   0  0  0  0  0  0  0  0  0  0  0  0
    9.6239   -0.3979    0.0000 C   0  0  0  0  0  0  0  0  0  0  0  0
    4.3754    0.7658    0.0000 O   0  0  0  0  0  0  0  0  0  0  0  0
    8.1305   -0.3979    0.0000 C   0  0  0  0  0  0  0  0  0  0  0  0
    9.6239   -1.1446    0.0000 C   0  0  0  0  0  0  0  0  0  0  0  0
    2.1190    1.1446    0.0000 C   0  0  0  0  0  0  0  0  0  0  0  0
    4.3754   -1.5179    0.0000 O   0  0  0  0  0  0  0  0  0  0  0  0
    1.3560    2.2866    0.0000 N   0  0  0  0  0  0  0  0  0  0  0  0
    4.3754   -3.0606    0.0000 O   0  0  0  0  0  0  0  0  0  0  0  0
   11.8582    0.7384    0.0000 O   0  0  0  0  0  0  0  0  0  0  0  0
    2.8822    0.7658    0.0000 C   0  0  0  0  0  0  0  0  0  0  0  0
   13.3789   -0.0027    0.0000 O   0  0  0  0  0  0  0  0  0  0  0  0
   13.3515   -1.5399    0.0000 O   0  0  0  0  0  0  0  0  0  0  0  0
    2.8822   -2.2919    0.0000 C   0  0  0  0  0  0  0  0  0  0  0  0
    9.6239   -2.6598    0.0000 C   0  0  0  0  0  0  0  0  0  0  0  0
    5.8742   -0.0027    0.0000 C   0  0  0  0  0  0  0  0  0  0  0  0
    3.6124   -0.3979    0.0000 C   0  0  0  0  0  0  0  0  0  0  0  0
   11.8582   -2.3140    0.0000 C   0  0  0  0  0  0  0  0  0  0  0  0
    2.8822    3.0606    0.0000 C   0  0  0  0  0  0  0  0  0  0  0  0
    3.6124   -1.1446    0.0000 C   0  0  0  0  0  0  0  0  0  0  0  0
    0.5928    1.9132    0.0000 C   0  0  0  0  0  0  0  0  0  0  0  0
    1.3560    3.0606    0.0000 C   0  0  0  0  0  0  0  0  0  0  0  0
    2.8822   -1.5179    0.0000 C   0  0  0  0  0  0  0  0  0  0  0  0
   12.6159    1.1446    0.0000 C   0  0  0  0  0  0  0  0  0  0  0  0
   14.1146   -0.3979    0.0000 C   0  0  0  0  0  0  0  0  0  0  0  0
   13.3515   -2.3140    0.0000 C   0  0  0  0  0  0  0  0  0  0  0  0
    2.1190   -2.6598    0.0000 C   0  0  0  0  0  0  0  0  0  0  0  0
    1.3560   -2.2919    0.0000 C   0  0  0  0  0  0  0  0  0  0  0  0
  2  4  1  0
  3  5  1  1
  4  1  1  0
  5  1  2  0
  6  1  1  0
  7 22  1  1
  8  3  1  0
  9  7  1  0
  2 10  1  1
 11  9  1  0
 12  8  1  0
 13 10  2  0
 14  7  1  0
 15 11  1  0
 16  6  1  0
 17 24  1  0
 18 26  1  0
 19 14  1  0
 20 16  1  0
 21 17  1  0
 27 22  1  6
 23 31  1  0
 24 28  1  1
 25 18  1  0
  4 26  1  6
 27 29  1  0
 20 28  1  6
  8 29  1  6
 12 30  1  1
 31 36  1  0
 32  6  2  0
 23 33  1  6
 34 18  2  0
  9 35  1  6
 36 24  1  0
 11 37  1  6
 15 38  1  1
 39 25  1  0
 40 13  1  0
 16 41  1  1
 42 20  1  0
 19 43  1  6
 21 44  1  1
 45 42  1  0
 46 33  1  0
 47 33  1  0
 48 39  1  0
 49 35  1  0
 50 37  1  0
 51 38  1  0
 39 52  1  1
 53 52  1  0
  3  2  1  0
 13 12  1  0
 27 30  1  0
 45 48  1  0
 23 21  1  0
 19 15  1  0
M  END
$$$$
