[NO NAME]
     RDKit          2D

 32 33  0  0  1  0  0  0  0  0999 V2000
    2.2540   -0.3771    0.0000 F   0  0  0  0  0  0  0  0  0  0  0  0
    3.9040   -0.3771    0.0000 F   0  0  0  0  0  0  0  0  0  0  0  0
    4.6909    3.6223    0.0000 O   0  0  0  0  0  0  0  0  0  0  0  0
    2.3413    1.9153    0.0000 O   0  0  0  0  0  0  0  0  0  0  0  0
    2.3644   -1.6146    0.0000 O   0  0  0  0  0  0  0  0  0  0  0  0
    8.7270   -0.7183    0.0000 O   0  0  0  0  0  0  0  0  0  0  0  0
    9.1686    0.6407    0.0000 O   0  0  0  0  0  0  0  0  0  0  0  0
    4.4609    2.1703    0.0000 C   0  0  0  0  0  0  0  0  0  0  0  0
    3.7934    1.6854    0.0000 C   0  0  0  0  0  0  0  0  0  0  0  0
    4.2059    2.9549    0.0000 C   0  0  0  0  0  0  0  0  0  0  0  0
    3.1260    2.1703    0.0000 C   0  0  0  0  0  0  0  0  0  0  0  0
    3.3809    2.9549    0.0000 C   0  0  0  0  0  0  0  0  0  0  0  0
    5.2454    1.9153    0.0000 C   0  0  0  0  0  0  0  0  0  0  0  0
    3.7934    0.8604    0.0000 C   0  0  0  0  0  0  0  0  0  0  0  0
    5.8586    2.4674    0.0000 C   0  0  0  0  0  0  0  0  0  0  0  0
    3.0790    0.4479    0.0000 C   0  0  0  0  0  0  0  0  0  0  0  0
    6.6432    2.2125    0.0000 C   0  0  0  0  0  0  0  0  0  0  0  0
    3.0790   -0.3771    0.0000 C   0  0  0  0  0  0  0  0  0  0  0  0
    6.8147    1.4055    0.0000 C   0  0  0  0  0  0  0  0  0  0  0  0
    3.0790   -1.2021    0.0000 C   0  0  0  0  0  0  0  0  0  0  0  0
    7.5993    1.1505    0.0000 C   0  0  0  0  0  0  0  0  0  0  0  0
    7.7708    0.3435    0.0000 C   0  0  0  0  0  0  0  0  0  0  0  0
    8.5555    0.0886    0.0000 C   0  0  0  0  0  0  0  0  0  0  0  0
    2.3644   -2.4396    0.0000 C   0  0  0  0  0  0  0  0  0  0  0  0
    9.5117   -0.9733    0.0000 C   0  0  0  0  0  0  0  0  0  0  0  0
    3.0790   -2.8521    0.0000 C   0  0  0  0  0  0  0  0  0  0  0  0
    1.6500   -2.8521    0.0000 C   0  0  0  0  0  0  0  0  0  0  0  0
   10.1247   -0.4212    0.0000 C   0  0  0  0  0  0  0  0  0  0  0  0
    9.6832   -1.7803    0.0000 C   0  0  0  0  0  0  0  0  0  0  0  0
    3.0790   -3.6771    0.0000 C   0  0  0  0  0  0  0  0  0  0  0  0
    1.6500   -3.6771    0.0000 C   0  0  0  0  0  0  0  0  0  0  0  0
    2.3644   -4.0896    0.0000 C   0  0  0  0  0  0  0  0  0  0  0  0
  1 18  1  0
  2 18  1  0
 10  3  1  6
 11  4  1  6
  5 20  1  0
  5 24  1  0
  6 23  1  0
  6 25  1  0
  7 23  2  0
  8  9  1  0
  8 10  1  0
  8 13  1  6
  9 11  1  0
  9 14  1  1
 10 12  1  0
 11 12  1  0
 13 15  1  0
 14 16  2  0
 15 17  2  0
 16 18  1  0
 17 19  1  0
 18 20  1  0
 19 21  1  0
 21 22  1  0
 22 23  1  0
 24 26  2  0
 24 27  1  0
 25 28  1  0
 25 29  1  0
 26 30  1  0
 27 31  2  0
 30 32  2  0
 31 32  1  0
M  END
$$$$
