
     RDKit          2D

 23 25  0  0  0  0  0  0  0  0999 V2000
   -1.1800    1.8414    0.0000 C   0  0  0  0  0  0  0  0  0  0  0  0
    6.1368   -0.4125    0.0000 C   0  0  0  0  0  0  0  0  0  0  0  0
    5.4223    0.8250    0.0000 C   0  0  0  0  0  0  0  0  0  0  0  0
    3.9933    0.8250    0.0000 C   0  0  0  0  0  0  0  0  0  0  0  0
    6.8512    0.0000    0.0000 C   0  0  0  0  0  0  0  0  0  0  0  0
    6.1368    1.2375    0.0000 C   0  0  0  0  0  0  0  0  0  0  0  0
    3.2789    1.2375    0.0000 C   0  0  0  0  0  0  0  0  0  0  0  0
    3.2789   -0.4125    0.0000 C   0  0  0  0  0  0  0  0  0  0  0  0
    5.4223    0.0000    0.0000 C   0  0  0  0  0  0  0  0  0  0  0  0
    3.9933    0.0000    0.0000 C   0  0  0  0  0  0  0  0  0  0  0  0
    6.8512    0.8250    0.0000 C   0  0  0  0  0  0  0  0  0  0  0  0
    2.5644    0.8250    0.0000 C   0  0  0  0  0  0  0  0  0  0  0  0
    2.5644    0.0000    0.0000 C   0  0  0  0  0  0  0  0  0  0  0  0
    4.7078   -0.4125    0.0000 C   0  0  0  0  0  0  0  0  0  0  0  0
    1.2949    0.4125    0.0000 C   0  0  0  0  0  0  0  0  0  0  0  0
    0.0574    1.1269    0.0000 C   0  0  0  0  0  0  0  0  0  0  0  0
    7.5657    1.2375    0.0000 F   0  0  0  0  0  0  0  0  0  0  0  0
    1.7798    1.0799    0.0000 N   0  0  0  0  0  0  0  0  0  0  0  0
    1.7798   -0.2549    0.0000 N   0  0  0  0  0  0  0  0  0  0  0  0
    0.4699    0.4125    0.0000 N   0  0  0  0  0  0  0  0  0  0  0  0
    4.7078   -1.2375    0.0000 O   0  0  0  0  0  0  0  0  0  0  0  0
    0.4699    1.8414    0.0000 O   0  0  0  0  0  0  0  0  0  0  0  0
   -0.7675    1.1269    0.0000 O   0  0  0  0  0  0  0  0  0  0  0  0
  5  2  2  0
  6  3  1  0
  7  4  2  0
  9  2  1  0
  9  3  2  0
 10  4  1  0
 10  8  2  0
 11  5  1  0
 11  6  2  0
 12  7  1  0
 13  8  1  0
 13 12  2  0
 14  9  1  0
 14 10  1  0
 17 11  1  0
 18 12  1  0
 18 15  2  0
 19 13  1  0
 19 15  1  0
 20 15  1  0
 20 16  2  3
 21 14  2  0
 22 16  1  0
 23  1  1  0
 23 16  1  0
M  END
$$$$
