 
     RDKit          2D

101106  0  0  1  0  0  0  0  0999 V2000
    3.0416   -7.7082    0.0000 C   0  0  0  0  0  0  0  0  0  0  0  0
    3.7500   -8.1249    0.0000 C   0  0  0  0  0  0  0  0  0  0  0  0
    4.4999   -7.7082    0.0000 C   0  0  0  0  0  0  0  0  0  0  0  0
    5.2083   -8.1249    0.0000 C   0  0  0  0  0  0  0  0  0  0  0  0
    5.9166   -7.7082    0.0000 N   0  0  0  0  0  0  0  0  0  0  0  0
    6.6666   -8.1249    0.0000 C   0  0  0  0  0  0  0  0  0  0  0  0
    7.3749   -7.7082    0.0000 C   0  0  0  0  0  0  0  0  0  0  0  0
    8.0832   -8.1249    0.0000 N   0  0  0  0  0  0  0  0  0  0  0  0
    8.8332   -7.7082    0.0000 C   0  0  0  0  0  0  0  0  0  0  0  0
    9.5416   -8.1249    0.0000 C   0  0  0  0  0  0  0  0  0  0  0  0
   10.2499   -7.7082    0.0000 C   0  0  0  0  0  0  0  0  0  0  0  0
   10.9999   -8.1249    0.0000 S   0  0  0  0  0  0  0  0  0  0  0  0
   10.9999   -8.9582    0.0000 S   0  0  0  0  0  0  0  0  0  0  0  0
   10.2915   -9.3749    0.0000 C   0  0  0  0  0  0  0  0  0  0  0  0
   10.2915  -10.2083    0.0000 C   0  0  0  0  0  0  0  0  0  0  0  0
    9.5832  -10.6248    0.0000 N   0  0  0  0  0  0  0  0  0  0  0  0
    8.8332  -10.2083    0.0000 C   0  0  0  0  0  0  0  0  0  0  0  0
    8.1249  -10.6248    0.0000 C   0  0  0  0  0  0  0  0  0  0  0  0
    7.4165  -10.2083    0.0000 N   0  0  0  0  0  0  0  0  0  0  0  0
    6.6666  -10.6248    0.0000 C   0  0  0  0  0  0  0  0  0  0  0  0
    5.9582  -10.2083    0.0000 C   0  0  0  0  0  0  0  0  0  0  0  0
    5.2500  -10.6248    0.0000 C   0  0  0  0  0  0  0  0  0  0  0  0
    8.8332   -9.3749    0.0000 O   0  0  0  0  0  0  0  0  0  0  0  0
    8.1249  -13.0415    0.0000 C   0  0  0  0  0  0  0  0  0  0  0  0
    6.6666  -11.4582    0.0000 O   0  0  0  0  0  0  0  0  0  0  0  0
    5.2500  -11.4582    0.0000 C   0  0  0  0  0  0  0  0  0  0  0  0
    5.9582   -9.3749    0.0000 N   0  0  0  0  0  0  0  0  0  0  0  0
    5.2083   -8.9582    0.0000 C   0  0  0  0  0  0  0  0  0  0  0  0
    6.6666   -8.8332    0.0000 O   0  0  0  0  0  0  0  0  0  0  0  0
    7.3749   -6.8750    0.0000 C   0  0  0  0  0  0  0  0  0  0  0  0
    8.8332   -6.8750    0.0000 O   0  0  0  0  0  0  0  0  0  0  0  0
    9.5416   -8.8332    0.0000 N   0  0  0  0  0  0  0  0  0  0  0  0
    8.0832   -6.4583    0.0000 S   0  0  0  0  0  0  0  0  0  0  0  0
   10.9999  -10.6248    0.0000 C   0  0  0  0  0  0  0  0  0  0  0  0
   11.7499  -10.2083    0.0000 N   0  0  0  0  0  0  0  0  0  0  0  0
   12.4582  -10.6248    0.0000 C   0  0  0  0  0  0  0  0  0  0  0  0
   13.1665  -10.2083    0.0000 C   0  0  0  0  0  0  0  0  0  0  0  0
   13.9165  -10.6248    0.0000 N   0  0  0  0  0  0  0  0  0  0  0  0
   10.9999  -11.4582    0.0000 O   0  0  0  0  0  0  0  0  0  0  0  0
    4.5416  -11.8748    0.0000 C   0  0  0  0  0  0  0  0  0  0  0  0
    4.5416  -12.7082    0.0000 C   0  0  0  0  0  0  0  0  0  0  0  0
    5.2500  -13.1249    0.0000 C   0  0  0  0  0  0  0  0  0  0  0  0
    5.9582  -12.7082    0.0000 C   0  0  0  0  0  0  0  0  0  0  0  0
    5.9582  -11.8748    0.0000 C   0  0  0  0  0  0  0  0  0  0  0  0
    5.2500  -13.9581    0.0000 O   0  0  0  0  0  0  0  0  0  0  0  0
    4.5416   -9.3749    0.0000 O   0  0  0  0  0  0  0  0  0  0  0  0
   13.1665   -9.3749    0.0000 O   0  0  0  0  0  0  0  0  0  0  0  0
   13.9165  -11.4582    0.0000 C   0  0  0  0  0  0  0  0  0  0  0  0
   14.7082  -11.7082    0.0000 C   0  0  0  0  0  0  0  0  0  0  0  0
   15.1664  -11.0415    0.0000 C   0  0  0  0  0  0  0  0  0  0  0  0
   14.7082  -10.3748    0.0000 C   0  0  0  0  0  0  0  0  0  0  0  0
   14.9582   -9.5832    0.0000 C   0  0  0  0  0  0  0  0  0  0  0  0
   15.7915   -9.4165    0.0000 O   0  0  0  0  0  0  0  0  0  0  0  0
   14.4165   -8.9582    0.0000 N   0  0  0  0  0  0  0  0  0  0  0  0
   14.4165   -8.1249    0.0000 C   0  0  0  0  0  0  0  0  0  0  0  0
   15.1248   -7.7082    0.0000 C   0  0  0  0  0  0  0  0  0  0  0  0
   13.7081   -7.7082    0.0000 C   0  0  0  0  0  0  0  0  0  0  0  0
   15.8331   -8.1249    0.0000 O   0  0  0  0  0  0  0  0  0  0  0  0
   15.1248   -6.8750    0.0000 N   0  0  0  0  0  0  0  0  0  0  0  0
   14.4165   -6.4583    0.0000 C   0  0  0  0  0  0  0  0  0  0  0  0
   13.7081   -6.8750    0.0000 C   0  0  0  0  0  0  0  0  0  0  0  0
   14.4165   -5.6249    0.0000 C   0  0  0  0  0  0  0  0  0  0  0  0
   13.0415   -6.4583    0.0000 S   0  0  0  0  0  0  0  0  0  0  0  0
   15.1248   -5.2083    0.0000 N   0  0  0  0  0  0  0  0  0  0  0  0
   15.8331   -5.6249    0.0000 C   0  0  0  0  0  0  0  0  0  0  0  0
   13.7081   -5.2083    0.0000 O   0  0  0  0  0  0  0  0  0  0  0  0
   15.8331   -6.4583    0.0000 C   0  0  0  0  0  0  0  0  0  0  0  0
   16.5832   -6.8750    0.0000 N   0  0  0  0  0  0  0  0  0  0  0  0
   16.5832   -7.7082    0.0000 C   0  0  0  0  0  0  0  0  0  0  0  0
   16.5415   -5.2083    0.0000 C   0  0  0  0  0  0  0  0  0  0  0  0
   17.2498   -5.6249    0.0000 O   0  0  0  0  0  0  0  0  0  0  0  0
   16.5415   -4.3749    0.0000 C   0  0  0  0  0  0  0  0  0  0  0  0
    8.8332  -13.4581    0.0000 S   0  0  0  0  0  0  0  0  0  0  0  0
   14.9165  -13.4581    0.0000 S   0  0  0  0  0  0  0  0  0  0  0  0
   17.2914   -8.1249    0.0000 C   0  0  0  0  0  0  0  0  0  0  0  0
   17.2914  -11.8332    0.0000 N   0  0  0  0  0  0  0  0  0  0  0  0
   16.5832   -6.0416    0.0000 O   0  0  0  0  0  0  0  0  0  0  0  0
   12.1248  -11.4582    0.0000 C   0  0  0  0  0  0  0  0  0  0  0  0
   12.5415  -12.1665    0.0000 C   0  0  0  0  0  0  0  0  0  0  0  0
   13.3332  -12.1665    0.0000 O   0  0  0  0  0  0  0  0  0  0  0  0
   12.0831  -12.9165    0.0000 N   0  0  0  0  0  0  0  0  0  0  0  0
   17.9998   -7.7082    0.0000 O   0  0  0  0  0  0  0  0  0  0  0  0
   16.4165  -12.4998    0.0000 C   0  0  0  0  0  0  0  0  0  0  0  0
   15.5831  -12.4998    0.0000 C   0  0  0  0  0  0  0  0  0  0  0  0
   16.8331  -13.2082    0.0000 C   0  0  0  0  0  0  0  0  0  0  0  0
   17.6665  -13.2082    0.0000 N   0  0  0  0  0  0  0  0  0  0  0  0
   18.3747  -13.6665    0.0000 C   0  0  0  0  0  0  0  0  0  0  0  0
   19.1248  -13.2499    0.0000 C   0  0  0  0  0  0  0  0  0  0  0  0
   16.4165  -13.9165    0.0000 O   0  0  0  0  0  0  0  0  0  0  0  0
   18.3747  -14.4998    0.0000 C   0  0  0  0  0  0  0  0  0  0  0  0
   17.6665  -14.9165    0.0000 O   0  0  0  0  0  0  0  0  0  0  0  0
   19.0831  -14.9165    0.0000 O   0  0  0  0  0  0  0  0  0  0  0  0
   19.1248  -12.4165    0.0000 C   0  0  0  0  0  0  0  0  0  0  0  0
   19.8330  -11.9998    0.0000 C   0  0  0  0  0  0  0  0  0  0  0  0
   19.8330  -11.1665    0.0000 C   0  0  0  0  0  0  0  0  0  0  0  0
   19.1248  -10.7498    0.0000 C   0  0  0  0  0  0  0  0  0  0  0  0
   18.3747  -11.1665    0.0000 C   0  0  0  0  0  0  0  0  0  0  0  0
   18.3747  -11.9998    0.0000 C   0  0  0  0  0  0  0  0  0  0  0  0
   19.1248   -9.9166    0.0000 O   0  0  0  0  0  0  0  0  0  0  0  0
    2.3334   -8.1249    0.0000 O   0  0  0  0  0  0  0  0  0  0  0  0
    3.0416   -6.8750    0.0000 O   0  0  0  0  0  0  0  0  0  0  0  0
  1  2  1  0
  2  3  1  0
  4  3  1  6
  4  5  1  0
  5  6  1  0
  6  7  1  0
  7  8  1  0
  8  9  1  0
  9 10  1  0
 10 11  1  0
 11 12  1  0
 12 13  1  0
 13 14  1  0
 15 14  1  0
 15 16  1  1
 16 17  1  0
 17 18  1  0
 18 19  1  0
 19 20  1  0
 20 21  1  0
 21 22  1  6
 17 23  2  0
 18 24  1  6
 20 25  2  0
 22 26  1  0
 21 27  1  0
 27 28  1  0
 28  4  1  0
  6 29  2  0
  7 30  1  6
  9 31  2  0
 10 32  1  6
 30 33  1  0
 15 34  1  0
 34 35  1  0
 35 36  1  0
 36 37  1  0
 37 38  1  0
 34 39  2  0
 26 40  2  0
 40 41  1  0
 41 42  2  0
 42 43  1  0
 43 44  2  0
 26 44  1  0
 42 45  1  0
 28 46  2  0
 37 47  2  0
 38 48  1  0
 48 49  1  0
 49 50  1  0
 51 50  1  6
 51 38  1  0
 51 52  1  0
 52 53  2  0
 52 54  1  0
 54 55  1  0
 55 56  1  0
 55 57  1  1
 56 58  2  0
 56 59  1  0
 60 59  1  1
 60 61  1  0
 60 62  1  0
 33 63  1  0
 62 64  1  0
 65 64  1  1
 62 66  2  0
 65 67  1  0
 67 68  1  0
 68 69  1  0
 65 70  1  0
 70 71  1  0
 70 72  1  1
 24 73  1  0
 73 74  1  0
 69 75  1  0
 75 76  1  0
 63 61  1  0
 67 77  2  0
 36 78  1  6
 78 79  1  0
 79 80  2  0
 79 81  1  0
 75 82  2  0
 83 76  1  0
 83 84  1  0
 84 74  1  0
 83 85  1  6
 85 86  1  0
 87 86  1  0
 87 88  1  1
 85 89  2  0
 87 90  1  0
 90 91  1  0
 90 92  2  0
 88 93  1  0
 93 94  2  0
 94 95  1  0
 95 96  2  0
 96 97  1  0
 97 98  2  0
 93 98  1  0
 96 99  1  0
  1100  1  0
  1101  2  0
M  END
$$$$
