
     RDKit          2D

 15 15  0  0  0  0  0  0  0  0999 V2000
   14.9738   -9.4875    0.0000 C   0  0  0  0  0  0  0  0  0  0  0  0
   14.2725   -9.0750    0.0000 C   0  0  0  0  0  0  0  0  0  0  0  0
   14.9738  -10.3125    0.0000 C   0  0  0  0  0  0  0  0  0  0  0  0
   15.7163   -9.0750    0.0000 C   0  0  0  0  0  0  0  0  0  0  0  0
   13.5713   -9.4875    0.0000 C   0  0  0  0  0  0  0  0  0  0  0  0
   15.7163  -10.7250    0.0000 C   0  0  0  0  0  0  0  0  0  0  0  0
   16.4175   -9.4875    0.0000 C   0  0  0  0  0  0  0  0  0  0  0  0
   13.5713  -10.3125    0.0000 C   0  0  0  0  0  0  0  0  0  0  0  0
   12.8288   -9.0750    0.0000 N   0  0  0  0  0  0  0  0  0  0  0  0
   16.4175  -10.3125    0.0000 C   0  0  0  0  0  0  0  0  0  0  0  0
   12.1143   -9.4875    0.0000 C   0  0  0  0  0  0  0  0  0  0  0  0
   11.3997   -9.0750    0.0000 C   0  0  0  0  0  0  0  0  0  0  0  0
   10.6853   -9.4875    0.0000 Cl  0  0  0  0  0  0  0  0  0  0  0  0
   11.3997   -8.2500    0.0000 Cl  0  0  0  0  0  0  0  0  0  0  0  0
   11.3997   -9.9000    0.0000 Cl  0  0  0  0  0  0  0  0  0  0  0  0
  1  2  1  0
  1  3  2  0
  1  4  1  0
  2  5  1  0
  3  6  1  0
  4  7  2  0
  5  8  1  0
  5  9  1  0
  6 10  2  0
  7 10  1  0
  9 11  2  0
 11 12  1  0
 12 13  1  0
 12 14  1  0
 12 15  1  0
M  END
$$$$
