
     RDKit          2D

 24 26  0  0  0  0  0  0  0  0999 V2000
   -4.2868    5.7750    0.0000 C   0  0  0  0  0  0  0  0  0  0  0  0
   -0.7144    2.0625    0.0000 C   0  0  0  0  0  0  0  0  0  0  0  0
    0.0000    2.4750    0.0000 C   0  0  0  0  0  0  0  0  0  0  0  0
   -1.4289    2.4750    0.0000 C   0  0  0  0  0  0  0  0  0  0  0  0
    0.0000    3.3000    0.0000 C   0  0  0  0  0  0  0  0  0  0  0  0
   -1.4289    3.3000    0.0000 C   0  0  0  0  0  0  0  0  0  0  0  0
   -4.2868    8.2500    0.0000 C   0  0  0  0  0  0  0  0  0  0  0  0
   -5.0012    7.0125    0.0000 C   0  0  0  0  0  0  0  0  0  0  0  0
   -5.0012    8.6625    0.0000 C   0  0  0  0  0  0  0  0  0  0  0  0
   -5.7157    7.4250    0.0000 C   0  0  0  0  0  0  0  0  0  0  0  0
   -1.4289    5.7750    0.0000 C   0  0  0  0  0  0  0  0  0  0  0  0
   -2.1434    4.5375    0.0000 C   0  0  0  0  0  0  0  0  0  0  0  0
   -2.1434    6.1875    0.0000 C   0  0  0  0  0  0  0  0  0  0  0  0
   -2.8578    4.9500    0.0000 C   0  0  0  0  0  0  0  0  0  0  0  0
   -0.7144    4.5375    0.0000 C   0  0  0  0  0  0  0  0  0  0  0  0
   -3.5723    6.1875    0.0000 C   0  0  0  0  0  0  0  0  0  0  0  0
   -0.7144    3.7125    0.0000 C   0  0  0  0  0  0  0  0  0  0  0  0
   -1.4289    4.9500    0.0000 C   0  0  0  0  0  0  0  0  0  0  0  0
   -4.2868    7.4250    0.0000 C   0  0  0  0  0  0  0  0  0  0  0  0
   -5.7157    8.2500    0.0000 C   0  0  0  0  0  0  0  0  0  0  0  0
   -3.5723    7.0125    0.0000 C   0  0  0  0  0  0  0  0  0  0  0  0
   -2.8578    5.7750    0.0000 N   0  0  0  0  0  0  0  0  0  0  0  0
   -6.4302    8.6625    0.0000 O   0  0  0  0  0  0  0  0  0  0  0  0
   -2.8578    7.4250    0.0000 O   0  0  0  0  0  0  0  0  0  0  0  0
  3  2  2  0
  4  2  1  0
  5  3  1  0
  6  4  2  0
  9  7  2  0
 10  8  1  0
 13 11  1  0
 14 12  1  0
 16  1  1  0
 17  5  2  0
 17  6  1  0
 17 15  1  0
 18 11  1  0
 18 12  1  0
 18 15  1  0
 19  7  1  0
 19  8  2  0
 20  9  1  0
 20 10  2  0
 21 16  1  0
 21 19  1  0
 22 13  1  0
 22 14  1  0
 22 16  1  0
 23 20  1  0
 24 21  1  0
M  END
$$$$
