68867
     RDKit          2D

 29 31  0  0  1  0  0  0  0  0999 V2000
    3.7935   -0.4909    0.0000 O   0  0  0  0  0  0  0  0  0  0  0  0
    3.0791   -1.7284    0.0000 O   0  0  0  0  0  0  0  0  0  0  0  0
    6.6515   -2.9659    0.0000 O   0  0  0  0  0  0  0  0  0  0  0  0
    5.9370   -4.2035    0.0000 O   0  0  0  0  0  0  0  0  0  0  0  0
    5.2224    1.9842    0.0000 N   0  0  0  0  0  0  0  0  0  0  0  0
    5.2224   -0.4909    0.0000 N   0  0  0  0  0  0  0  0  0  0  0  0
    5.9370   -3.3784    0.0000 N   0  0  0  0  0  0  0  0  0  0  0  0
    4.5080   -4.2035    0.0000 N   0  0  0  0  0  0  0  0  0  0  0  0
    5.9370    3.2217    0.0000 C   0  0  0  0  0  0  0  0  0  0  0  0
    5.2224    2.8092    0.0000 C   0  0  0  0  0  0  0  0  0  0  0  0
    5.2224    0.3341    0.0000 C   0  0  0  0  0  0  0  0  0  0  0  0
    4.5080    1.5717    0.0000 C   0  0  0  0  0  0  0  0  0  0  0  0
    5.9370    1.5717    0.0000 C   0  0  0  0  0  0  0  0  0  0  0  0
    4.5080    0.7466    0.0000 C   0  0  0  0  0  0  0  0  0  0  0  0
    5.9370    0.7466    0.0000 C   0  0  0  0  0  0  0  0  0  0  0  0
    5.9370    4.0467    0.0000 C   0  0  0  0  0  0  0  0  0  0  0  0
    6.6515    2.8092    0.0000 C   0  0  0  0  0  0  0  0  0  0  0  0
    6.6515    4.4592    0.0000 C   0  0  0  0  0  0  0  0  0  0  0  0
    7.3659    3.2217    0.0000 C   0  0  0  0  0  0  0  0  0  0  0  0
    7.3659    4.0467    0.0000 C   0  0  0  0  0  0  0  0  0  0  0  0
    4.5080   -0.9034    0.0000 C   0  0  0  0  0  0  0  0  0  0  0  0
    4.5080   -1.7284    0.0000 C   0  0  0  0  0  0  0  0  0  0  0  0
    3.7935   -2.1409    0.0000 C   0  0  0  0  0  0  0  0  0  0  0  0
    5.2224   -2.1409    0.0000 C   0  0  0  0  0  0  0  0  0  0  0  0
    5.2224   -2.9659    0.0000 C   0  0  0  0  0  0  0  0  0  0  0  0
    3.7935   -2.9659    0.0000 C   0  0  0  0  0  0  0  0  0  0  0  0
    4.5080   -3.3784    0.0000 C   0  0  0  0  0  0  0  0  0  0  0  0
    2.3645   -2.1409    0.0000 C   0  0  0  0  0  0  0  0  0  0  0  0
    1.6500   -1.7284    0.0000 C   0  0  0  0  0  0  0  0  0  0  0  0
  1 21  2  0
  2 23  1  0
  2 28  1  0
  3  7  1  0
  4  7  2  0
  5 10  1  0
  5 12  1  0
  5 13  1  0
  6 11  1  0
  6 21  1  0
  7 25  1  0
  8 27  1  0
  9 10  1  0
  9 16  1  0
  9 17  1  0
 11 14  1  0
 11 15  1  0
 12 14  1  0
 13 15  1  0
 16 18  1  0
 17 19  1  0
 18 20  1  0
 19 20  2  0
 21 22  1  0
 22 23  2  0
 22 24  1  0
 23 26  1  0
 24 25  2  0
 25 27  1  0
 26 27  2  0
 28 29  1  0
M  CHG  2   3  -1   7   1
M  END
$$$$
