[NO NAME]
     RDKit          2D

 36 40  0  0  1  0  0  0  0  0999 V2000
   14.7457   -8.3769    0.0000 N   0  0  0  0  0  0  0  0  0  0  0  0
   15.3644   -8.8718    0.0000 C   0  0  0  0  0  0  0  0  0  0  0  0
   14.0033   -8.6244    0.0000 C   0  0  0  0  0  0  0  0  0  0  0  0
   15.1170   -7.5519    0.0000 N   0  0  0  0  0  0  0  0  0  0  0  0
   16.1069   -8.4181    0.0000 C   0  0  0  0  0  0  0  0  0  0  0  0
   15.3232   -9.7381    0.0000 N   0  0  0  0  0  0  0  0  0  0  0  0
   13.3433   -8.1293    0.0000 C   0  0  0  0  0  0  0  0  0  0  0  0
   13.7558   -9.3668    0.0000 C   0  0  0  0  0  0  0  0  0  0  0  0
   15.9832   -7.6756    0.0000 N   0  0  0  0  0  0  0  0  0  0  0  0
   16.8082   -8.8306    0.0000 C   0  0  0  0  0  0  0  0  0  0  0  0
   16.0657  -10.1505    0.0000 C   0  0  0  0  0  0  0  0  0  0  0  0
   12.6833   -8.5831    0.0000 C   0  0  0  0  0  0  0  0  0  0  0  0
   12.9308   -9.3668    0.0000 C   0  0  0  0  0  0  0  0  0  0  0  0
   14.2095  -10.0268    0.0000 O   0  0  0  0  0  0  0  0  0  0  0  0
   16.8494   -9.6968    0.0000 N   0  0  0  0  0  0  0  0  0  0  0  0
   17.5506   -8.4181    0.0000 N   0  0  0  0  0  0  0  0  0  0  0  0
   11.8996   -8.3356    0.0000 O   0  0  0  0  0  0  0  0  0  0  0  0
   12.6833  -10.1093    0.0000 O   0  0  0  0  0  0  0  0  0  0  0  0
   16.0245  -10.9343    0.0000 S   0  0  0  0  0  0  0  0  0  0  0  0
   16.7669  -11.3468    0.0000 C   0  0  0  0  0  0  0  0  0  0  0  0
   17.4682  -10.9343    0.0000 C   0  0  0  0  0  0  0  0  0  0  0  0
   11.1852   -8.7481    0.0000 C   0  0  0  0  0  0  0  0  0  0  0  0
   10.4707   -8.3356    0.0000 C   0  0  0  0  0  0  0  0  0  0  0  0
    9.7563   -8.7481    0.0000 O   0  0  0  0  0  0  0  0  0  0  0  0
   18.1859  -11.3409    0.0000 C   0  0  0  0  0  0  0  0  0  0  0  0
   18.3547   -9.0215    0.0000 C   0  0  0  0  0  0  0  0  0  0  0  0
   19.1824   -9.0442    0.0000 C   0  0  0  0  0  0  0  0  0  0  0  0
   18.7505   -8.3005    0.0000 C   0  0  0  0  0  0  0  0  0  0  0  0
   19.9016   -9.4717    0.0000 C   0  0  0  0  0  0  0  0  0  0  0  0
   19.8910  -10.3155    0.0000 C   0  0  0  0  0  0  0  0  0  0  0  0
   20.6001  -10.7370    0.0000 C   0  0  0  0  0  0  0  0  0  0  0  0
   21.3610  -10.3336    0.0000 C   0  0  0  0  0  0  0  0  0  0  0  0
   21.3305   -9.4898    0.0000 C   0  0  0  0  0  0  0  0  0  0  0  0
   20.6213   -9.0683    0.0000 C   0  0  0  0  0  0  0  0  0  0  0  0
   20.5898  -11.5529    0.0000 F   0  0  0  0  0  0  0  0  0  0  0  0
   22.0096  -10.7434    0.0000 F   0  0  0  0  0  0  0  0  0  0  0  0
  1  2  1  0
  3  1  1  1
  1  4  1  0
  2  5  2  0
  2  6  1  0
  3  7  1  0
  3  8  1  0
  4  9  2  0
  5 10  1  0
  6 11  2  0
  7 12  1  0
  8 13  1  0
  8 14  1  6
 10 15  2  0
 10 16  1  0
 12 17  1  1
 13 18  1  6
  5  9  1  0
 11 15  1  0
 12 13  1  0
 11 19  1  0
 19 20  1  0
 20 21  1  0
 17 22  1  0
 22 23  1  0
 23 24  1  0
 21 25  1  0
 26 27  1  0
 27 28  1  0
 28 26  1  0
 26 16  1  6
 29 30  2  0
 30 31  1  0
 31 32  2  0
 32 33  1  0
 33 34  2  0
 29 34  1  0
 31 35  1  0
 32 36  1  0
 27 29  1  1
M  END
$$$$
