34154
     RDKit          2D

 17 18  0  0  0  0  0  0  0  0999 V2000
    3.7935   -0.0160    0.0000 O   0  0  0  0  0  0  0  0  0  0  0  0
    3.8405    1.7065    0.0000 N   0  0  0  0  0  0  0  0  0  0  0  0
    5.1754    1.7065    0.0000 N   0  0  0  0  0  0  0  0  0  0  0  0
    2.3645   -0.8410    0.0000 C   0  0  0  0  0  0  0  0  0  0  0  0
    3.0790   -1.2535    0.0000 C   0  0  0  0  0  0  0  0  0  0  0  0
    3.7935   -0.8410    0.0000 C   0  0  0  0  0  0  0  0  0  0  0  0
    4.5080    1.2215    0.0000 C   0  0  0  0  0  0  0  0  0  0  0  0
    1.6500   -1.2535    0.0000 C   0  0  0  0  0  0  0  0  0  0  0  0
    2.3645   -0.0160    0.0000 C   0  0  0  0  0  0  0  0  0  0  0  0
    4.0955    2.4911    0.0000 C   0  0  0  0  0  0  0  0  0  0  0  0
    3.0790   -2.0786    0.0000 C   0  0  0  0  0  0  0  0  0  0  0  0
    4.5080    0.3965    0.0000 C   0  0  0  0  0  0  0  0  0  0  0  0
    4.9205    2.4911    0.0000 C   0  0  0  0  0  0  0  0  0  0  0  0
    4.5080   -1.2535    0.0000 C   0  0  0  0  0  0  0  0  0  0  0  0
    4.5080   -2.0786    0.0000 C   0  0  0  0  0  0  0  0  0  0  0  0
    3.7935   -2.4911    0.0000 C   0  0  0  0  0  0  0  0  0  0  0  0
    5.2224   -2.4911    0.0000 C   0  0  0  0  0  0  0  0  0  0  0  0
  1  6  1  0
  1 12  1  0
  2  7  1  0
  2 10  1  0
  3  7  2  0
  3 13  1  0
  4  5  1  0
  4  8  1  0
  4  9  1  0
  5  6  2  0
  5 11  1  0
  6 14  1  0
  7 12  1  0
 10 13  1  0
 11 16  2  0
 14 15  2  0
 15 16  1  0
 15 17  1  0
M  END
$$$$
