2200
     RDKit          2D

 20 22  0  0  1  0  0  0  0  0999 V2000
    4.5080   -0.0160    0.0000 N   0  0  0  0  0  0  0  0  0  0  0  0
    4.5550    1.7065    0.0000 N   0  0  0  0  0  0  0  0  0  0  0  0
    5.8899    1.7065    0.0000 N   0  0  0  0  0  0  0  0  0  0  0  0
    5.2224    0.3965    0.0000 C   0  0  0  0  0  0  0  0  0  0  0  0
    5.2224    1.2215    0.0000 C   0  0  0  0  0  0  0  0  0  0  0  0
    3.7935    0.3965    0.0000 C   0  0  0  0  0  0  0  0  0  0  0  0
    4.8099    2.4911    0.0000 C   0  0  0  0  0  0  0  0  0  0  0  0
    4.5080   -0.8410    0.0000 C   0  0  0  0  0  0  0  0  0  0  0  0
    5.6350    2.4911    0.0000 C   0  0  0  0  0  0  0  0  0  0  0  0
    3.0790   -0.0160    0.0000 C   0  0  0  0  0  0  0  0  0  0  0  0
    5.2224   -1.2535    0.0000 C   0  0  0  0  0  0  0  0  0  0  0  0
    3.7935   -1.2535    0.0000 C   0  0  0  0  0  0  0  0  0  0  0  0
    3.0790   -0.8410    0.0000 C   0  0  0  0  0  0  0  0  0  0  0  0
    2.3645    0.3965    0.0000 C   0  0  0  0  0  0  0  0  0  0  0  0
    5.2224   -2.0786    0.0000 C   0  0  0  0  0  0  0  0  0  0  0  0
    3.7935   -2.0786    0.0000 C   0  0  0  0  0  0  0  0  0  0  0  0
    2.3645   -1.2535    0.0000 C   0  0  0  0  0  0  0  0  0  0  0  0
    1.6500   -0.0160    0.0000 C   0  0  0  0  0  0  0  0  0  0  0  0
    4.5080   -2.4911    0.0000 C   0  0  0  0  0  0  0  0  0  0  0  0
    1.6500   -0.8410    0.0000 C   0  0  0  0  0  0  0  0  0  0  0  0
  1  4  1  0
  1  6  1  0
  1  8  1  0
  2  5  1  0
  2  7  1  0
  3  5  2  0
  3  9  1  0
  4  5  1  0
  6 10  1  0
  7  9  1  0
  8 11  2  0
  8 12  1  0
 10 13  2  0
 10 14  1  0
 11 15  1  0
 12 16  2  0
 13 17  1  0
 14 18  2  0
 15 19  2  0
 16 19  1  0
 17 20  2  0
 18 20  1  0
M  END
$$$$
