
     RDKit          2D

 32 34  0  0  0  0  0  0  0  0999 V2000
   -3.9732    1.4508    0.0000 C   0  0  0  0  0  0  0  0  0  0  0  0
   -3.2587    1.8633    0.0000 C   0  0  0  0  0  0  0  0  0  0  0  0
   -2.5442    1.4508    0.0000 N   0  0  0  0  0  0  0  0  0  0  0  0
   -1.8298    1.8633    0.0000 S   0  0  0  0  0  0  0  0  0  0  0  0
   -4.6876    1.8633    0.0000 C   0  0  0  0  0  0  0  0  0  0  0  0
   -1.2323    1.5947    0.0000 N   0  0  0  0  0  0  0  0  0  0  0  0
   -2.3194    2.4194    0.0000 O   0  0  0  0  0  0  0  0  0  0  0  0
   -1.3411    2.5281    0.0000 O   0  0  0  0  0  0  0  0  0  0  0  0
   -1.2331    0.8551    0.0000 C   0  0  0  0  0  0  0  0  0  0  0  0
   -1.9476    0.4426    0.0000 N   0  0  0  0  0  0  0  0  0  0  0  0
   -1.9476   -0.3824    0.0000 C   0  0  0  0  0  0  0  0  0  0  0  0
   -1.2331   -0.7949    0.0000 N   0  0  0  0  0  0  0  0  0  0  0  0
   -0.5186   -0.3824    0.0000 C   0  0  0  0  0  0  0  0  0  0  0  0
   -0.5186    0.4426    0.0000 C   0  0  0  0  0  0  0  0  0  0  0  0
    0.1957   -0.7949    0.0000 O   0  0  0  0  0  0  0  0  0  0  0  0
    0.9102   -0.3824    0.0000 C   0  0  0  0  0  0  0  0  0  0  0  0
    1.6247   -0.7949    0.0000 C   0  0  0  0  0  0  0  0  0  0  0  0
    2.3391   -0.3824    0.0000 O   0  0  0  0  0  0  0  0  0  0  0  0
    3.7681   -0.3823    0.0000 N   0  0  0  0  0  0  0  0  0  0  0  0
    3.0536   -0.7949    0.0000 C   0  0  0  0  0  0  0  0  0  0  0  0
    3.0536   -1.6199    0.0000 N   0  0  0  0  0  0  0  0  0  0  0  0
    3.7681   -2.0324    0.0000 C   0  0  0  0  0  0  0  0  0  0  0  0
    4.4825   -1.6199    0.0000 C   0  0  0  0  0  0  0  0  0  0  0  0
    4.4825   -0.7949    0.0000 C   0  0  0  0  0  0  0  0  0  0  0  0
    5.2362   -1.9554    0.0000 Br  0  0  0  0  0  0  0  0  0  0  0  0
    0.9102    2.0926    0.0000 C   0  0  0  0  0  0  0  0  0  0  0  0
    0.1957    1.6801    0.0000 C   0  0  0  0  0  0  0  0  0  0  0  0
    0.1957    0.8551    0.0000 C   0  0  0  0  0  0  0  0  0  0  0  0
    0.9102    0.4425    0.0000 C   0  0  0  0  0  0  0  0  0  0  0  0
    1.6247    0.8551    0.0000 C   0  0  0  0  0  0  0  0  0  0  0  0
    1.6247    1.6801    0.0000 C   0  0  0  0  0  0  0  0  0  0  0  0
    2.3391    2.0926    0.0000 Br  0  0  0  0  0  0  0  0  0  0  0  0
  1  2  1  0
  2  3  1  0
  3  4  1  0
  1  5  1  0
  4  6  1  0
  4  7  2  0
  4  8  2  0
  9 10  2  0
  9 14  1  0
 10 11  1  0
 11 12  2  0
 12 13  1  0
 13 14  2  0
  6  9  1  0
 13 15  1  0
 15 16  1  0
 16 17  1  0
 17 18  1  0
 19 20  2  0
 19 24  1  0
 20 21  1  0
 21 22  2  0
 22 23  1  0
 23 24  2  0
 18 20  1  0
 23 25  1  0
 26 27  2  0
 26 31  1  0
 27 28  1  0
 28 29  2  0
 29 30  1  0
 30 31  2  0
 14 28  1  0
 31 32  1  0
M  END
$$$$
