
     RDKit          2D

 33 37  0  0  1  0  0  0  0  0999 V2000
   14.1613   -4.8968    0.0000 C   0  0  0  0  0  0  0  0  0  0  0  0
   14.1613   -4.0718    0.0000 C   0  0  0  0  0  0  0  0  0  0  0  0
   13.4187   -5.3093    0.0000 C   0  0  0  0  0  0  0  0  0  0  0  0
   12.7175   -4.8968    0.0000 O   0  0  0  0  0  0  0  0  0  0  0  0
   13.4187   -6.1343    0.0000 O   0  0  0  0  0  0  0  0  0  0  0  0
   12.0162   -5.3093    0.0000 C   0  0  0  0  0  0  0  0  0  0  0  0
   11.2737   -4.8968    0.0000 C   0  0  0  0  0  0  0  0  0  0  0  0
   12.0162   -6.1756    0.0000 C   0  0  0  0  0  0  0  0  0  0  0  0
   10.5312   -5.3093    0.0000 C   0  0  0  0  0  0  0  0  0  0  0  0
   11.5212   -5.6393    0.0000 C   0  0  0  0  0  0  0  0  0  0  0  0
   11.2737   -6.5881    0.0000 N   0  0  0  0  0  0  0  0  0  0  0  0
   10.5312   -6.1343    0.0000 C   0  0  0  0  0  0  0  0  0  0  0  0
   11.0262   -5.7631    0.0000 C   0  0  0  0  0  0  0  0  0  0  0  0
   11.2737   -7.4131    0.0000 C   0  0  0  0  0  0  0  0  0  0  0  0
   14.8287   -3.5868    0.0000 C   0  0  0  0  0  0  0  0  0  0  0  0
   14.5738   -2.8022    0.0000 C   0  0  0  0  0  0  0  0  0  0  0  0
   13.7488   -2.8022    0.0000 C   0  0  0  0  0  0  0  0  0  0  0  0
   13.4938   -3.5868    0.0000 S   0  0  0  0  0  0  0  0  0  0  0  0
   10.5593   -7.8256    0.0000 C   0  0  0  0  0  0  0  0  0  0  0  0
    9.8547   -7.4187    0.0000 C   0  0  0  0  0  0  0  0  0  0  0  0
    9.1550   -7.8227    0.0000 O   0  0  0  0  0  0  0  0  0  0  0  0
    8.4530   -7.4172    0.0000 C   0  0  0  0  0  0  0  0  0  0  0  0
    8.4530   -6.5882    0.0000 C   0  0  0  0  0  0  0  0  0  0  0  0
    7.7386   -6.1757    0.0000 C   0  0  0  0  0  0  0  0  0  0  0  0
    7.0241   -6.5882    0.0000 C   0  0  0  0  0  0  0  0  0  0  0  0
    7.0240   -7.4172    0.0000 C   0  0  0  0  0  0  0  0  0  0  0  0
    7.7385   -7.8297    0.0000 C   0  0  0  0  0  0  0  0  0  0  0  0
   14.8723   -5.3151    0.0000 C   0  0  0  0  0  0  0  0  0  0  0  0
   15.6287   -4.9858    0.0000 S   0  0  0  0  0  0  0  0  0  0  0  0
   14.9518   -6.1363    0.0000 C   0  0  0  0  0  0  0  0  0  0  0  0
   16.1757   -5.6034    0.0000 C   0  0  0  0  0  0  0  0  0  0  0  0
   15.7574   -6.3145    0.0000 C   0  0  0  0  0  0  0  0  0  0  0  0
   14.8758   -4.4843    0.0000 O   0  0  0  0  0  0  0  0  0  0  0  0
  1  2  1  0
  1  3  1  0
  3  4  1  0
  3  5  2  0
  6  4  1  1
  6  7  1  0
  6  8  1  0
  7  9  1  0
  7 10  1  0
  8 11  1  0
  9 12  1  0
 10 13  1  0
 11 12  1  0
 11 13  1  0
 11 14  1  0
  2 15  2  0
 15 16  1  0
 16 17  2  0
 17 18  1  0
  2 18  1  0
 14 19  1  0
 19 20  1  0
 20 21  1  0
 21 22  1  0
 22 23  2  0
 23 24  1  0
 24 25  2  0
 25 26  1  0
 26 27  2  0
 22 27  1  0
 29 28  1  0
 30 28  2  0
 31 29  1  0
 32 30  1  0
 32 31  2  0
  1 28  1  0
  1 33  1  0
M  CHG  1  11   1
M  END
$$$$
