
     RDKit          2D

  3  2  0  0  0  0  0  0  0  0999 V2000
    0.0000    0.2062    0.0000 Ra  0  0  0  0  0  2  0  0  0  0  0  0
   -0.7145   -0.2062    0.0000 Cl  0  0  0  0  0  0  0  0  0  0  0  0
    0.7145   -0.2062    0.0000 Cl  0  0  0  0  0  0  0  0  0  0  0  0
  1  2  1  0
  1  3  1  0
M  ISO  1   1 223
M  END
$$$$
