 
     RDKit          2D

 52 55  0  0  1  0  0  0  0  0999 V2000
    6.6881  -10.5220    0.0000 C   0  0  0  0  0  0  0  0  0  0  0  0
    7.4025  -10.1094    0.0000 C   0  0  0  0  0  0  0  0  0  0  0  0
    8.1171  -10.5220    0.0000 N   0  0  0  0  0  0  0  0  0  0  0  0
    8.8315  -10.1094    0.0000 C   0  0  0  0  0  0  0  0  0  0  0  0
    9.5460  -10.5220    0.0000 C   0  0  0  0  0  0  0  0  0  0  0  0
   10.2605  -10.1094    0.0000 N   0  0  0  0  0  0  0  0  0  0  0  0
   10.9750  -10.5220    0.0000 C   0  0  0  0  0  0  0  0  0  0  0  0
   11.6895  -10.1094    0.0000 C   0  0  0  0  0  0  0  0  0  0  0  0
   12.4040  -10.5220    0.0000 N   0  0  0  0  0  0  0  0  0  0  0  0
   13.1185  -10.1094    0.0000 C   0  0  0  0  0  0  0  0  0  0  0  0
   13.8330  -10.5220    0.0000 C   0  0  0  0  0  0  0  0  0  0  0  0
   14.5474  -10.1094    0.0000 N   0  0  0  0  0  0  0  0  0  0  0  0
   15.2619  -10.5220    0.0000 C   0  0  0  0  0  0  0  0  0  0  0  0
   15.9765  -10.1094    0.0000 C   0  0  0  0  0  0  0  0  0  0  0  0
    5.9736  -10.1094    0.0000 N   0  0  0  0  0  0  0  0  0  0  0  0
   16.6390  -10.5165    0.0000 C   0  0  0  0  0  0  0  0  0  0  0  0
    5.9736   -9.2846    0.0000 C   0  0  0  0  0  0  0  0  0  0  0  0
    5.2592   -8.8721    0.0000 C   0  0  0  0  0  0  0  0  0  0  0  0
    4.5446   -9.2845    0.0000 O   0  0  0  0  0  0  0  0  0  0  0  0
    4.5446  -10.1094    0.0000 C   0  0  0  0  0  0  0  0  0  0  0  0
    5.2592  -10.5220    0.0000 C   0  0  0  0  0  0  0  0  0  0  0  0
   15.9466   -9.2846    0.0000 O   0  0  0  0  0  0  0  0  0  0  0  0
   13.8330  -11.3469    0.0000 O   0  0  0  0  0  0  0  0  0  0  0  0
   11.6895   -9.2845    0.0000 O   0  0  0  0  0  0  0  0  0  0  0  0
    9.5460  -11.3469    0.0000 O   0  0  0  0  0  0  0  0  0  0  0  0
    7.4025   -9.2846    0.0000 O   0  0  0  0  0  0  0  0  0  0  0  0
   13.1185   -9.2844    0.0000 C   0  0  0  0  0  0  0  0  0  0  0  0
    8.8315   -9.2844    0.0000 C   0  0  0  0  0  0  0  0  0  0  0  0
   15.2619  -11.3470    0.0000 C   0  0  0  0  0  0  0  0  0  0  0  0
   10.9750  -11.3470    0.0000 C   0  0  0  0  0  0  0  0  0  0  0  0
   17.3549  -10.1289    0.0000 O   0  0  0  0  0  0  0  0  0  0  0  0
   17.3535  -10.9291    0.0000 C   0  0  0  0  0  0  0  0  0  0  0  0
   13.8365   -8.8699    0.0000 C   0  0  0  0  0  0  0  0  0  0  0  0
    9.5472   -8.8712    0.0000 C   0  0  0  0  0  0  0  0  0  0  0  0
    9.5472   -8.0462    0.0000 C   0  0  0  0  0  0  0  0  0  0  0  0
   10.2517   -7.6393    0.0000 C   0  0  0  0  0  0  0  0  0  0  0  0
   10.2516   -6.8143    0.0000 C   0  0  0  0  0  0  0  0  0  0  0  0
    9.5371   -6.4019    0.0000 C   0  0  0  0  0  0  0  0  0  0  0  0
    8.8326   -6.8087    0.0000 C   0  0  0  0  0  0  0  0  0  0  0  0
    8.8327   -7.6337    0.0000 C   0  0  0  0  0  0  0  0  0  0  0  0
   14.5428   -9.2777    0.0000 C   0  0  0  0  0  0  0  0  0  0  0  0
   15.2573   -8.8653    0.0000 C   0  0  0  0  0  0  0  0  0  0  0  0
   15.2574   -8.0403    0.0000 C   0  0  0  0  0  0  0  0  0  0  0  0
   14.5511   -7.6324    0.0000 C   0  0  0  0  0  0  0  0  0  0  0  0
   13.8366   -8.0448    0.0000 C   0  0  0  0  0  0  0  0  0  0  0  0
   11.6895  -11.7595    0.0000 C   0  0  0  0  0  0  0  0  0  0  0  0
   12.3964  -11.3513    0.0000 C   0  0  0  0  0  0  0  0  0  0  0  0
   11.6895  -12.5844    0.0000 C   0  0  0  0  0  0  0  0  0  0  0  0
   15.9764  -11.7595    0.0000 C   0  0  0  0  0  0  0  0  0  0  0  0
   16.6857  -11.3499    0.0000 C   0  0  0  0  0  0  0  0  0  0  0  0
   15.9765  -12.5845    0.0000 C   0  0  0  0  0  0  0  0  0  0  0  0
   16.6390   -9.6915    0.0000 C   0  0  0  0  0  0  0  0  0  0  0  0
  1  2  1  0
  2  3  1  0
  3  4  1  0
  4  5  1  0
  5  6  1  0
  6  7  1  0
  7  8  1  0
  8  9  1  0
  9 10  1  0
 10 11  1  0
 11 12  1  0
 12 13  1  0
 13 14  1  0
  1 15  1  0
 16 14  1  0
 15 17  1  0
 17 18  1  0
 18 19  1  0
 19 20  1  0
 20 21  1  0
 15 21  1  0
 14 22  2  0
 11 23  2  0
  8 24  2  0
  5 25  2  0
  2 26  2  0
 10 27  1  1
  4 28  1  1
 13 29  1  6
  7 30  1  6
 16 31  1  0
 16 32  1  0
 31 32  1  0
 27 33  1  0
 28 34  1  0
 34 35  1  0
 35 36  2  0
 36 37  1  0
 37 38  2  0
 38 39  1  0
 39 40  2  0
 35 40  1  0
 33 41  2  0
 41 42  1  0
 42 43  2  0
 43 44  1  0
 44 45  2  0
 33 45  1  0
 30 46  1  0
 46 47  1  0
 46 48  1  0
 29 49  1  0
 49 50  1  0
 49 51  1  0
 16 52  1  1
M  END
$$$$
