
     RDKit          2D

 26 27  0  0  0  0  0  0  0  0999 V2000
   -5.0012    3.4660    0.0000 C   0  0  0  0  0  0  0  0  0  0  0  0
   -6.4302    0.9910    0.0000 C   0  0  0  0  0  0  0  0  0  0  0  0
   -2.4453    0.9590    0.0000 C   0  0  0  0  0  0  0  0  0  0  0  0
   -2.1904    1.7436    0.0000 C   0  0  0  0  0  0  0  0  0  0  0  0
   -4.2868    5.5285    0.0000 C   0  0  0  0  0  0  0  0  0  0  0  0
   -5.0012    5.9410    0.0000 C   0  0  0  0  0  0  0  0  0  0  0  0
   -3.2703    0.9590    0.0000 C   0  0  0  0  0  0  0  0  0  0  0  0
   -5.7157    3.0535    0.0000 C   0  0  0  0  0  0  0  0  0  0  0  0
   -6.4302    4.2910    0.0000 C   0  0  0  0  0  0  0  0  0  0  0  0
   -2.8578    3.0535    0.0000 C   0  0  0  0  0  0  0  0  0  0  0  0
   -5.7157    5.5285    0.0000 C   0  0  0  0  0  0  0  0  0  0  0  0
   -5.0012    4.2910    0.0000 C   0  0  0  0  0  0  0  0  0  0  0  0
   -6.4302    1.8160    0.0000 C   0  0  0  0  0  0  0  0  0  0  0  0
   -6.4302    3.4660    0.0000 C   0  0  0  0  0  0  0  0  0  0  0  0
   -2.8578    2.2285    0.0000 C   0  0  0  0  0  0  0  0  0  0  0  0
   -4.2868    4.7035    0.0000 C   0  0  0  0  0  0  0  0  0  0  0  0
   -7.1447    3.0535    0.0000 C   0  0  0  0  0  0  0  0  0  0  0  0
   -7.8591    3.4660    0.0000 N   0  0  0  0  0  0  0  0  0  0  0  0
   -5.7157    2.2285    0.0000 N   0  0  0  0  0  0  0  0  0  0  0  0
   -7.1447    2.2285    0.0000 N   0  0  0  0  0  0  0  0  0  0  0  0
   -5.7157    4.7035    0.0000 N   0  0  0  0  0  0  0  0  0  0  0  0
   -5.0012    6.7660    0.0000 O   0  0  0  0  0  0  0  0  0  0  0  0
   -6.4302    5.9410    0.0000 O   0  0  0  0  0  0  0  0  0  0  0  0
   -3.5253    1.7436    0.0000 O   0  0  0  0  0  0  0  0  0  0  0  0
   -3.5723    3.4660    0.0000 S   0  0  0  0  0  0  0  0  0  0  0  0
   -3.5723    4.2910    0.0000 S   0  0  0  0  0  0  0  0  0  0  0  0
  4  3  1  0
  6  5  1  0
  7  3  1  0
 12  1  1  0
 13  2  1  0
 14  8  2  0
 14  9  1  0
 15  4  1  0
 15 10  1  0
 16  5  1  0
 16 12  2  0
 17 14  1  0
 18 17  2  3
 19  8  1  0
 19 13  2  0
 20 13  1  0
 20 17  1  0
 21  9  1  0
 21 11  1  0
 21 12  1  0
 22  6  1  0
 23 11  2  0
 24  7  1  0
 24 15  1  0
 25 10  1  0
 26 16  1  0
 26 25  1  0
M  END
$$$$
