
     RDKit          2D

 22 24  0  0  0  0  0  0  0  0999 V2000
    1.6622    1.7437    0.0000 C   0  0  0  0  0  0  0  0  0  0  0  0
    3.8057    2.9812    0.0000 C   0  0  0  0  0  0  0  0  0  0  0  0
    3.0912    1.7437    0.0000 C   0  0  0  0  0  0  0  0  0  0  0  0
    3.2678    4.6505    0.0000 C   0  0  0  0  0  0  0  0  0  0  0  0
   -1.3721    4.6505    0.0000 C   0  0  0  0  0  0  0  0  0  0  0  0
    3.0842    3.8462    0.0000 C   0  0  0  0  0  0  0  0  0  0  0  0
   -1.1885    3.8462    0.0000 C   0  0  0  0  0  0  0  0  0  0  0  0
    2.6630    5.2117    0.0000 C   0  0  0  0  0  0  0  0  0  0  0  0
   -0.7673    5.2117    0.0000 C   0  0  0  0  0  0  0  0  0  0  0  0
    2.2958    3.6030    0.0000 C   0  0  0  0  0  0  0  0  0  0  0  0
   -0.4002    3.6030    0.0000 C   0  0  0  0  0  0  0  0  0  0  0  0
    1.3603    5.6135    0.0000 C   0  0  0  0  0  0  0  0  0  0  0  0
    0.5353    5.6135    0.0000 C   0  0  0  0  0  0  0  0  0  0  0  0
    0.9478    2.9812    0.0000 C   0  0  0  0  0  0  0  0  0  0  0  0
    2.3767    2.9812    0.0000 C   0  0  0  0  0  0  0  0  0  0  0  0
    1.6622    2.5687    0.0000 C   0  0  0  0  0  0  0  0  0  0  0  0
    1.8747    4.9685    0.0000 C   0  0  0  0  0  0  0  0  0  0  0  0
    0.0209    4.9685    0.0000 C   0  0  0  0  0  0  0  0  0  0  0  0
    1.6911    4.1642    0.0000 C   0  0  0  0  0  0  0  0  0  0  0  0
    0.2045    4.1642    0.0000 C   0  0  0  0  0  0  0  0  0  0  0  0
    0.9478    3.8062    0.0000 C   0  0  0  0  0  0  0  0  0  0  0  0
    3.0912    2.5687    0.0000 N   0  0  0  0  0  0  0  0  0  0  0  0
  6  4  2  0
  7  5  2  0
  8  4  1  0
  9  5  1  0
 10  6  1  0
 11  7  1  0
 13 12  1  0
 16  1  1  0
 16 14  1  0
 16 15  1  0
 17  8  2  0
 17 12  1  0
 18  9  2  0
 18 13  1  0
 19 10  2  0
 19 17  1  0
 20 11  2  0
 20 18  1  0
 21 14  1  0
 21 19  1  0
 21 20  1  0
 22  2  1  0
 22  3  1  0
 22 15  1  0
M  END
$$$$
