
     RDKit          2D

 21 21  0  0  0  0  0  0  0  0999 V2000
   -1.4387   -0.1776    0.0000 C   0  0  0  0  0  0  0  0  0  0  0  0
   -1.4387   -1.0005    0.0000 C   0  0  0  0  0  0  0  0  0  0  0  0
   -0.6938    0.2313    0.0000 C   0  0  0  0  0  0  0  0  0  0  0  0
   -2.1544    0.2313    0.0000 C   0  0  0  0  0  0  0  0  0  0  0  0
   -2.1544   -1.4094    0.0000 C   0  0  0  0  0  0  0  0  0  0  0  0
   -0.6938    1.0589    0.0000 O   0  0  0  0  0  0  0  0  0  0  0  0
   -2.8604   -1.0248    0.0000 C   0  0  0  0  0  0  0  0  0  0  0  0
    0.0073   -0.1776    0.0000 O   0  0  0  0  0  0  0  0  0  0  0  0
   -2.8604   -0.1776    0.0000 C   0  0  0  0  0  0  0  0  0  0  0  0
   -0.7084   -1.4387    0.0000 O   0  0  0  0  0  0  0  0  0  0  0  0
    2.1690    0.2117    0.0000 N   0  0  0  0  0  0  0  0  0  0  0  0
   -3.5858   -1.4533    0.0000 N   0  0  0  0  0  0  0  0  0  0  0  0
    0.7327    0.2313    0.0000 C   0  0  0  0  0  0  0  0  0  0  0  0
    1.4387   -0.1971    0.0000 C   0  0  0  0  0  0  0  0  0  0  0  0
    2.1690    1.0346    0.0000 C   0  0  0  0  0  0  0  0  0  0  0  0
    2.8798   -0.1971    0.0000 C   0  0  0  0  0  0  0  0  0  0  0  0
    0.0073   -1.0248    0.0000 C   0  0  0  0  0  0  0  0  0  0  0  0
    0.7180   -1.4533    0.0000 C   0  0  0  0  0  0  0  0  0  0  0  0
    2.8798    1.4533    0.0000 C   0  0  0  0  0  0  0  0  0  0  0  0
    3.5858    0.2117    0.0000 C   0  0  0  0  0  0  0  0  0  0  0  0
    1.4387   -1.0443    0.0000 C   0  0  0  0  0  0  0  0  0  0  0  0
  2  1  2  0
  3  1  1  0
  4  1  1  0
  5  2  1  0
  6  3  2  0
  7  9  1  0
  8  3  1  0
  9  4  2  0
 10  2  1  0
 11 14  1  0
 12  7  1  0
 13  8  1  0
 14 13  1  0
 15 11  1  0
 16 11  1  0
 17 10  1  0
 18 17  1  0
 19 15  1  0
 20 16  1  0
 21 18  1  0
  7  5  2  0
M  END
$$$$
