
     RDKit          2D

 36 39  0  0  0  0  0  0  0  0999 V2000
    0.8694    1.4107    0.0000 O   0  0  0  0  0  0  0  0  0  0  0  0
   -3.3957    1.4107    0.0000 O   0  0  0  0  0  0  0  0  0  0  0  0
    0.1640    0.1640    0.0000 O   0  0  0  0  0  0  0  0  0  0  0  0
   -2.6902    0.1640    0.0000 O   0  0  0  0  0  0  0  0  0  0  0  0
    0.1640   -2.2802    0.0000 O   0  0  0  0  0  0  0  0  0  0  0  0
    1.0744   -0.8284    0.0000 O   0  0  0  0  0  0  0  0  0  0  0  0
   -1.2467    2.6493    0.0000 N   0  0  0  0  0  0  0  0  0  0  0  0
    0.1640   -1.4518    0.0000 N   0  0  0  0  0  0  0  0  0  0  0  0
    2.6492    0.2050    0.0000 N   0  0  0  0  0  0  0  0  0  0  0  0
   -1.2467    0.9924    0.0000 C   0  0  0  0  0  0  0  0  0  0  0  0
   -0.5412    1.4107    0.0000 C   0  0  0  0  0  0  0  0  0  0  0  0
   -1.9849    1.4107    0.0000 C   0  0  0  0  0  0  0  0  0  0  0  0
   -1.2467    0.1640    0.0000 C   0  0  0  0  0  0  0  0  0  0  0  0
   -0.5412    2.2391    0.0000 C   0  0  0  0  0  0  0  0  0  0  0  0
   -1.9849    2.2391    0.0000 C   0  0  0  0  0  0  0  0  0  0  0  0
    0.1640    0.9924    0.0000 C   0  0  0  0  0  0  0  0  0  0  0  0
   -2.6902    0.9924    0.0000 C   0  0  0  0  0  0  0  0  0  0  0  0
   -0.5412   -0.2051    0.0000 C   0  0  0  0  0  0  0  0  0  0  0  0
   -1.9438   -0.2460    0.0000 C   0  0  0  0  0  0  0  0  0  0  0  0
   -0.5412   -1.0335    0.0000 C   0  0  0  0  0  0  0  0  0  0  0  0
    1.5747    0.9924    0.0000 C   0  0  0  0  0  0  0  0  0  0  0  0
    0.1640    2.6493    0.0000 C   0  0  0  0  0  0  0  0  0  0  0  0
   -2.6902    2.6493    0.0000 C   0  0  0  0  0  0  0  0  0  0  0  0
   -1.9438   -1.0335    0.0000 C   0  0  0  0  0  0  0  0  0  0  0  0
   -1.2467   -1.4518    0.0000 C   0  0  0  0  0  0  0  0  0  0  0  0
    1.8207    0.2050    0.0000 C   0  0  0  0  0  0  0  0  0  0  0  0
    2.2391    1.4927    0.0000 C   0  0  0  0  0  0  0  0  0  0  0  0
    2.9034    0.9924    0.0000 C   0  0  0  0  0  0  0  0  0  0  0  0
    3.3546   -0.1640    0.0000 C   0  0  0  0  0  0  0  0  0  0  0  0
   -4.1010    0.9924    0.0000 C   0  0  0  0  0  0  0  0  0  0  0  0
    3.3546   -0.9924    0.0000 C   0  0  0  0  0  0  0  0  0  0  0  0
    2.6492   -1.4026    0.0000 C   0  0  0  0  0  0  0  0  0  0  0  0
    4.1010   -1.4026    0.0000 C   0  0  0  0  0  0  0  0  0  0  0  0
    2.6492   -2.2310    0.0000 C   0  0  0  0  0  0  0  0  0  0  0  0
    4.1010   -2.2310    0.0000 C   0  0  0  0  0  0  0  0  0  0  0  0
    3.3546   -2.6493    0.0000 C   0  0  0  0  0  0  0  0  0  0  0  0
  1 16  1  0
 21  1  1  1
  2 17  1  0
  2 30  1  0
  3 16  2  0
  4 17  2  0
  5  8  1  0
  6  8  2  0
  7 14  1  0
  7 15  1  0
  8 20  1  0
  9 26  1  0
  9 28  1  0
  9 29  1  0
 10 11  1  0
 10 12  1  0
 10 13  1  1
 11 14  2  0
 11 16  1  0
 12 15  2  0
 12 17  1  0
 13 18  2  0
 13 19  1  0
 14 22  1  0
 15 23  1  0
 18 20  1  0
 19 24  2  0
 20 25  2  0
 21 26  1  0
 21 27  1  0
 24 25  1  0
 27 28  1  0
 29 31  1  0
 31 32  2  0
 31 33  1  0
 32 34  1  0
 33 35  2  0
 34 36  2  0
 35 36  1  0
M  CHG  2   5  -1   8   1
M  END
$$$$
