
     RDKit          2D

 30 33  0  0  0  0  0  0  0  0999 V2000
    4.2868   -2.4750    0.0000 C   0  0  0  0  0  0  0  0  0  0  0  0
   -4.3973    2.0625    0.0000 C   0  0  0  0  0  0  0  0  0  0  0  0
   -3.9848    1.3480    0.0000 C   0  0  0  0  0  0  0  0  0  0  0  0
    0.7144    2.0625    0.0000 C   0  0  0  0  0  0  0  0  0  0  0  0
    0.0000    2.4750    0.0000 C   0  0  0  0  0  0  0  0  0  0  0  0
    0.7144   -0.4125    0.0000 C   0  0  0  0  0  0  0  0  0  0  0  0
    0.7144   -1.2375    0.0000 C   0  0  0  0  0  0  0  0  0  0  0  0
    0.0000    0.8250    0.0000 C   0  0  0  0  0  0  0  0  0  0  0  0
    2.8578    0.0000    0.0000 C   0  0  0  0  0  0  0  0  0  0  0  0
    2.8578   -1.6500    0.0000 C   0  0  0  0  0  0  0  0  0  0  0  0
   -3.5723    2.0625    0.0000 C   0  0  0  0  0  0  0  0  0  0  0  0
    0.7144    1.2375    0.0000 C   0  0  0  0  0  0  0  0  0  0  0  0
    2.1434   -0.4125    0.0000 C   0  0  0  0  0  0  0  0  0  0  0  0
    3.5723   -0.4125    0.0000 C   0  0  0  0  0  0  0  0  0  0  0  0
   -0.7144    1.2375    0.0000 C   0  0  0  0  0  0  0  0  0  0  0  0
   -0.7144    2.0625    0.0000 C   0  0  0  0  0  0  0  0  0  0  0  0
    2.1434   -1.2375    0.0000 C   0  0  0  0  0  0  0  0  0  0  0  0
    1.4289    0.0000    0.0000 C   0  0  0  0  0  0  0  0  0  0  0  0
    3.5723   -1.2375    0.0000 C   0  0  0  0  0  0  0  0  0  0  0  0
    4.2868    0.0000    0.0000 C   0  0  0  0  0  0  0  0  0  0  0  0
   -2.1434    2.0625    0.0000 C   0  0  0  0  0  0  0  0  0  0  0  0
   -1.4289    0.8250    0.0000 Cl  0  0  0  0  0  0  0  0  0  0  0  0
    5.0012   -0.4125    0.0000 N   0  0  0  0  0  0  0  0  0  0  0  0
    1.4289   -1.6500    0.0000 N   0  0  0  0  0  0  0  0  0  0  0  0
   -2.8578    2.4750    0.0000 N   0  0  0  0  0  0  0  0  0  0  0  0
   -1.4289    2.4750    0.0000 N   0  0  0  0  0  0  0  0  0  0  0  0
    4.2868    0.8250    0.0000 O   0  0  0  0  0  0  0  0  0  0  0  0
   -2.1434    1.2375    0.0000 O   0  0  0  0  0  0  0  0  0  0  0  0
    4.2868   -1.6500    0.0000 O   0  0  0  0  0  0  0  0  0  0  0  0
    1.4289    0.8250    0.0000 O   0  0  0  0  0  0  0  0  0  0  0  0
  3  2  1  0
  5  4  2  0
  7  6  2  0
 11  2  1  0
 11  3  1  0
 12  4  1  0
 12  8  2  0
 13  9  1  0
 14  9  2  0
 15  8  1  0
 16  5  1  0
 16 15  2  0
 17 10  1  0
 17 13  1  0
 18  6  1  0
 18 13  2  0
 19 10  2  0
 19 14  1  0
 20 14  1  0
 22 15  1  0
 23 20  2  3
 24  7  1  0
 24 17  2  0
 25 11  1  0
 25 21  2  3
 26 16  1  0
 26 21  1  0
 27 20  1  0
 28 21  1  0
 29  1  1  0
 29 19  1  0
 30 12  1  0
 30 18  1  0
M  END
$$$$
