
     RDKit          2D

  4  3  0  0  0  0  0  0  0  0999 V2000
    0.6187    0.7145    0.0000 Cl  0  0  0  0  0  0  0  0  0  0  0  0
    0.2062    0.0000    0.0000 In  0  0  0  0  0  3  0  0  0  0  0  0
    0.6187   -0.7145    0.0000 Cl  0  0  0  0  0  0  0  0  0  0  0  0
   -0.6187    0.0000    0.0000 Cl  0  0  0  0  0  0  0  0  0  0  0  0
  1  2  1  0
  2  3  1  0
  2  4  1  0
M  ISO  1   2 111
M  END
$$$$
