
     RDKit          2D

 22 23  0  0  0  0  0  0  0  0999 V2000
    1.8903   -2.0567    0.0000 C   0  0  0  0  0  0  0  0  0  0  0  0
    1.4775   -1.3424    0.0000 C   0  0  0  0  0  0  0  0  0  0  0  0
    1.0650   -2.0570    0.0000 C   0  0  0  0  0  0  0  0  0  0  0  0
    1.0779    1.2314    0.0000 N   0  0  0  0  0  0  0  0  0  0  0  0
   -1.7775    1.2356    0.0000 O   0  0  0  0  0  0  0  0  0  0  0  0
   -0.3511    1.2308    0.0000 C   0  0  0  0  0  0  0  0  0  0  0  0
   -1.7832    0.4106    0.0000 C   0  0  0  0  0  0  0  0  0  0  0  0
    0.3634    1.6439    0.0000 C   0  0  0  0  0  0  0  0  0  0  0  0
   -1.0656    1.6432    0.0000 C   0  0  0  0  0  0  0  0  0  0  0  0
   -1.7947   -1.2335    0.0000 C   0  0  0  0  0  0  0  0  0  0  0  0
   -2.5012    0.0033    0.0000 C   0  0  0  0  0  0  0  0  0  0  0  0
   -1.0771   -0.0066    0.0000 C   0  0  0  0  0  0  0  0  0  0  0  0
   -2.5069   -0.8158    0.0000 C   0  0  0  0  0  0  0  0  0  0  0  0
   -1.0829   -0.8258    0.0000 C   0  0  0  0  0  0  0  0  0  0  0  0
   -0.3486    0.4106    0.0000 O   0  0  0  0  0  0  0  0  0  0  0  0
    0.3507   -2.4698    0.0000 C   0  0  0  0  0  0  0  0  0  0  0  0
   -0.3643   -2.0571    0.0000 O   0  0  0  0  0  0  0  0  0  0  0  0
    1.7928    1.6443    0.0000 C   0  0  0  0  0  0  0  0  0  0  0  0
   -1.7934   -2.0570    0.0000 C   0  0  0  0  0  0  0  0  0  0  0  0
   -1.0785   -2.4699    0.0000 C   0  0  0  0  0  0  0  0  0  0  0  0
    1.7929    2.4699    0.0000 C   0  0  0  0  0  0  0  0  0  0  0  0
    2.5069    1.2320    0.0000 C   0  0  0  0  0  0  0  0  0  0  0  0
  2  1  1  0
  3  1  1  0
  4  8  1  0
  5  7  1  0
  6  9  1  0
  7 12  2  0
  8  6  1  0
  9  5  1  0
 10 19  1  0
 11 13  2  0
 12 14  1  0
 13 10  1  0
 14 10  2  0
  6 15  1  6
 16  3  1  0
 17 16  1  0
 18  4  1  0
 19 20  1  0
 20 17  1  0
 21 18  1  0
 22 18  1  0
  3  2  1  0
 11  7  1  0
M  END
$$$$
