
     RDKit          2D

 22 24  0  0  0  0  0  0  0  0999 V2000
   -0.7858   -1.5392    0.0000 O   0  0  0  0  0  0  0  0  0  0  0  0
   -0.7026    2.2556    0.0000 O   0  0  0  0  0  0  0  0  0  0  0  0
   -2.0245   -0.8274    0.0000 O   0  0  0  0  0  0  0  0  0  0  0  0
    0.0000    1.0169    0.0000 N   0  0  0  0  0  0  0  0  0  0  0  0
    0.7026    2.2556    0.0000 N   0  0  0  0  0  0  0  0  0  0  0  0
   -0.7442    0.6470    0.0000 C   0  0  0  0  0  0  0  0  0  0  0  0
    0.7442    0.6470    0.0000 C   0  0  0  0  0  0  0  0  0  0  0  0
   -0.9060   -0.1803    0.0000 C   0  0  0  0  0  0  0  0  0  0  0  0
    0.9060   -0.1387    0.0000 C   0  0  0  0  0  0  0  0  0  0  0  0
   -0.4114   -0.7996    0.0000 C   0  0  0  0  0  0  0  0  0  0  0  0
    0.4114   -0.7996    0.0000 C   0  0  0  0  0  0  0  0  0  0  0  0
    0.0000    1.8443    0.0000 C   0  0  0  0  0  0  0  0  0  0  0  0
   -1.3636    1.2249    0.0000 C   0  0  0  0  0  0  0  0  0  0  0  0
   -1.6917   -0.4252    0.0000 C   0  0  0  0  0  0  0  0  0  0  0  0
    1.2804    1.2665    0.0000 C   0  0  0  0  0  0  0  0  0  0  0  0
    1.7333   -0.3420    0.0000 C   0  0  0  0  0  0  0  0  0  0  0  0
   -2.1447    0.9337    0.0000 C   0  0  0  0  0  0  0  0  0  0  0  0
   -2.3112    0.1524    0.0000 C   0  0  0  0  0  0  0  0  0  0  0  0
    2.1031    1.0169    0.0000 C   0  0  0  0  0  0  0  0  0  0  0  0
    2.3112    0.2356    0.0000 C   0  0  0  0  0  0  0  0  0  0  0  0
   -1.6085   -1.5392    0.0000 C   0  0  0  0  0  0  0  0  0  0  0  0
   -2.0245   -2.2556    0.0000 C   0  0  0  0  0  0  0  0  0  0  0  0
 10  1  1  6
  1 21  1  0
  2 12  2  0
  3 21  2  0
  4  6  1  0
  4  7  1  0
  4 12  1  0
  5 12  1  0
  6  8  2  0
  6 13  1  0
  7  9  2  0
  7 15  1  0
  8 10  1  0
  8 14  1  0
  9 11  1  0
  9 16  1  0
 10 11  1  0
 13 17  2  0
 14 18  2  0
 15 19  2  0
 16 20  2  0
 17 18  1  0
 19 20  1  0
 21 22  1  0
M  END
$$$$
