
     RDKit          2D

 33 35  0  0  1  0  0  0  0  0999 V2000
   10.4664   -2.5485    0.0000 S   0  0  0  0  0  0  0  0  0  0  0  0
   12.6067   -3.8028    0.0000 S   0  0  0  0  0  0  0  0  0  0  0  0
    6.1053   -2.9626    0.0000 S   0  0  0  0  0  0  0  0  0  0  0  0
    8.9591   -1.6625    0.0000 O   0  0  0  0  0  0  0  0  0  0  0  0
    8.2456   -4.2170    0.0000 O   0  0  0  0  0  0  0  0  0  0  0  0
    9.7645   -5.4368    0.0000 O   0  0  0  0  0  0  0  0  0  0  0  0
   11.1799   -5.4368    0.0000 O   0  0  0  0  0  0  0  0  0  0  0  0
    7.5321   -3.8028    0.0000 O   0  0  0  0  0  0  0  0  0  0  0  0
    3.9304   -1.7430    0.0000 O   0  0  0  0  0  0  0  0  0  0  0  0
    3.2170   -3.0088    0.0000 O   0  0  0  0  0  0  0  0  0  0  0  0
    9.7645   -3.8028    0.0000 N   0  0  0  0  0  0  0  0  0  0  0  0
    8.2456   -2.5485    0.0000 N   0  0  0  0  0  0  0  0  0  0  0  0
   13.6079   -5.0340    0.0000 N   0  0  0  0  0  0  0  0  0  0  0  0
   14.0451   -3.7337    0.0000 N   0  0  0  0  0  0  0  0  0  0  0  0
   14.4594   -5.0340    0.0000 N   0  0  0  0  0  0  0  0  0  0  0  0
   14.7240   -4.2400    0.0000 N   0  0  0  0  0  0  0  0  0  0  0  0
    4.6439   -3.8487    0.0000 N   0  0  0  0  0  0  0  0  0  0  0  0
    9.7645   -2.9626    0.0000 C   0  0  0  0  0  0  0  0  0  0  0  0
    8.9591   -2.9626    0.0000 C   0  0  0  0  0  0  0  0  0  0  0  0
    8.9591   -3.8028    0.0000 C   0  0  0  0  0  0  0  0  0  0  0  0
   10.4664   -4.2170    0.0000 C   0  0  0  0  0  0  0  0  0  0  0  0
   11.1799   -3.8028    0.0000 C   0  0  0  0  0  0  0  0  0  0  0  0
   11.1799   -2.9626    0.0000 C   0  0  0  0  0  0  0  0  0  0  0  0
   10.4664   -5.0224    0.0000 C   0  0  0  0  0  0  0  0  0  0  0  0
    7.5321   -2.9626    0.0000 C   0  0  0  0  0  0  0  0  0  0  0  0
   11.8934   -4.2170    0.0000 C   0  0  0  0  0  0  0  0  0  0  0  0
    9.6724   -1.2481    0.0000 C   0  0  0  0  0  0  0  0  0  0  0  0
    6.8187   -2.5485    0.0000 C   0  0  0  0  0  0  0  0  0  0  0  0
   13.3548   -4.2285    0.0000 C   0  0  0  0  0  0  0  0  0  0  0  0
    5.4033   -2.5830    0.0000 C   0  0  0  0  0  0  0  0  0  0  0  0
   13.1016   -5.7129    0.0000 C   0  0  0  0  0  0  0  0  0  0  0  0
    4.6439   -3.0088    0.0000 C   0  0  0  0  0  0  0  0  0  0  0  0
    3.9304   -2.5830    0.0000 C   0  0  0  0  0  0  0  0  0  0  0  0
 18  1  1  1
  1 23  1  0
  2 26  1  0
  2 29  1  0
  3 28  1  0
  3 30  1  0
 19  4  1  0
  4 27  1  0
  5 20  2  0
  6 24  2  0
  7 24  1  0
  8 25  2  0
  9 33  2  0
 10 33  1  0
 11 18  1  0
 11 20  1  0
 11 21  1  0
 19 12  1  1
 12 25  1  0
 13 15  1  0
 13 29  1  0
 13 31  1  0
 14 16  1  0
 14 29  2  0
 15 16  2  0
 32 17  1  1
 18 19  1  0
 19 20  1  0
 21 22  2  0
 21 24  1  0
 22 23  1  0
 22 26  1  0
 25 28  1  0
 30 32  1  0
 32 33  1  0
M  END
$$$$
