
     RDKit          2D

 19 22  0  0  0  0  0  0  0  0999 V2000
    2.1434   -3.7125    0.0000 C   0  0  0  0  0  0  0  0  0  0  0  0
   -0.7144   -0.4125    0.0000 C   0  0  0  0  0  0  0  0  0  0  0  0
    3.5723   -0.4125    0.0000 C   0  0  0  0  0  0  0  0  0  0  0  0
   -0.7144   -1.2375    0.0000 C   0  0  0  0  0  0  0  0  0  0  0  0
    3.5723   -1.2375    0.0000 C   0  0  0  0  0  0  0  0  0  0  0  0
    0.0000    0.0000    0.0000 C   0  0  0  0  0  0  0  0  0  0  0  0
    2.8578    0.0000    0.0000 C   0  0  0  0  0  0  0  0  0  0  0  0
    0.0000   -1.6500    0.0000 C   0  0  0  0  0  0  0  0  0  0  0  0
    2.8578   -1.6500    0.0000 C   0  0  0  0  0  0  0  0  0  0  0  0
    1.2914   -0.5500    0.0000 C   0  0  0  0  0  0  0  0  0  0  0  0
    1.2914   -1.1000    0.0000 C   0  0  0  0  0  0  0  0  0  0  0  0
    1.4289   -2.4750    0.0000 C   0  0  0  0  0  0  0  0  0  0  0  0
    1.4289    0.0000    0.0000 C   0  0  0  0  0  0  0  0  0  0  0  0
    0.7144   -0.4125    0.0000 C   0  0  0  0  0  0  0  0  0  0  0  0
    2.1434   -0.4125    0.0000 C   0  0  0  0  0  0  0  0  0  0  0  0
    0.7144   -1.2375    0.0000 C   0  0  0  0  0  0  0  0  0  0  0  0
    2.1434   -1.2375    0.0000 C   0  0  0  0  0  0  0  0  0  0  0  0
    1.4289   -1.6500    0.0000 C   0  0  0  0  0  0  0  0  0  0  0  0
    2.1434   -2.8875    0.0000 N   0  0  0  0  0  0  0  0  0  0  0  0
  4  2  2  0
  5  3  2  0
  6  2  1  0
  7  3  1  0
  8  4  1  0
  9  5  1  0
 11 10  1  0
 13 10  1  0
 14  6  2  0
 14 13  1  0
 15  7  2  0
 15 13  1  0
 16  8  2  0
 16 14  1  0
 17  9  2  0
 17 15  1  0
 18 11  1  0
 18 12  1  0
 18 16  1  0
 18 17  1  0
 19  1  1  0
 19 12  1  0
M  END
$$$$
