
     RDKit          2D

 33 34  0  0  0  0  0  0  0  0999 V2000
   -0.8231    0.6859    0.0000 C   0  0  0  0  0  0  0  0  0  0  0  0
   -0.7913   -0.6858    0.0000 C   0  0  0  0  0  0  0  0  0  0  0  0
   -1.5356    1.0949    0.0000 C   0  0  0  0  0  0  0  0  0  0  0  0
   -0.1108    1.0913    0.0000 C   0  0  0  0  0  0  0  0  0  0  0  0
   -1.5072   -1.0948    0.0000 C   0  0  0  0  0  0  0  0  0  0  0  0
   -0.0790   -1.1019    0.0000 C   0  0  0  0  0  0  0  0  0  0  0  0
   -1.5320    1.9200    0.0000 C   0  0  0  0  0  0  0  0  0  0  0  0
   -2.2514    0.6893    0.0000 C   0  0  0  0  0  0  0  0  0  0  0  0
   -0.1072    1.9129    0.0000 C   0  0  0  0  0  0  0  0  0  0  0  0
    0.5979    0.6788    0.0000 C   0  0  0  0  0  0  0  0  0  0  0  0
   -1.5072   -1.9200    0.0000 C   0  0  0  0  0  0  0  0  0  0  0  0
   -0.0825   -1.9200    0.0000 C   0  0  0  0  0  0  0  0  0  0  0  0
   -0.8196    2.3291    0.0000 N   0  0  0  0  0  0  0  0  0  0  0  0
   -2.2443    2.3326    0.0000 C   0  0  0  0  0  0  0  0  0  0  0  0
   -2.9601    1.0983    0.0000 O   0  0  0  0  0  0  0  0  0  0  0  0
   -2.2514   -0.1392    0.0000 O   0  0  0  0  0  0  0  0  0  0  0  0
    0.6049    2.3255    0.0000 C   0  0  0  0  0  0  0  0  0  0  0  0
    1.3137    1.0843    0.0000 O   0  0  0  0  0  0  0  0  0  0  0  0
    0.5944   -0.1463    0.0000 O   0  0  0  0  0  0  0  0  0  0  0  0
   -0.7984   -2.3326    0.0000 C   0  0  0  0  0  0  0  0  0  0  0  0
   -3.6724    0.6893    0.0000 C   0  0  0  0  0  0  0  0  0  0  0  0
    2.0261    0.6717    0.0000 C   0  0  0  0  0  0  0  0  0  0  0  0
   -4.3847    1.1019    0.0000 C   0  0  0  0  0  0  0  0  0  0  0  0
    2.7683    1.0990    0.0000 C   0  0  0  0  0  0  0  0  0  0  0  0
    0.6615   -0.6791    0.0000 C   0  0  0  0  0  0  0  0  0  0  0  0
    1.3779   -1.0972    0.0000 C   0  0  0  0  0  0  0  0  0  0  0  0
    2.0998   -0.6850    0.0000 C   0  0  0  0  0  0  0  0  0  0  0  0
    2.8112   -1.1002    0.0000 O   0  0  0  0  0  0  0  0  0  0  0  0
    2.0618    0.1675    0.0000 O   0  0  0  0  0  0  0  0  0  0  0  0
    3.5356   -0.6865    0.0000 C   0  0  0  0  0  0  0  0  0  0  0  0
    4.3847   -0.1892    0.0000 C   0  0  0  0  0  0  0  0  0  0  0  0
    3.9448   -1.4033    0.0000 C   0  0  0  0  0  0  0  0  0  0  0  0
    3.1080    0.0625    0.0000 C   0  0  0  0  0  0  0  0  0  0  0  0
  1  2  1  0
  1  3  1  0
  1  4  1  0
  2  5  2  0
  2  6  1  0
  3  7  2  0
  3  8  1  0
  4  9  2  0
  4 10  1  0
  5 11  1  0
  6 12  2  0
  7 13  1  0
  7 14  1  0
  8 15  1  0
  8 16  2  0
  9 17  1  0
 10 18  1  0
 10 19  2  0
 11 20  2  0
 15 21  1  0
 18 22  1  0
 21 23  1  0
  9 13  1  0
 12 20  1  0
 22 24  1  0
  6 25  1  0
 25 26  2  0
 26 27  1  0
 27 28  1  0
 27 29  2  0
 28 30  1  0
 30 31  1  0
 30 32  1  0
 30 33  1  0
M  END
$$$$
