
     RDKit          2D

 14 13  0  0  0  0  0  0  0  0999 V2000
   -2.1805    1.2964    0.0000 O   0  0  0  0  0  0  0  0  0  0  0  0
   -1.4660    1.7089    0.0000 C   0  0  0  0  0  0  0  0  0  0  0  0
   -0.7516    1.2964    0.0000 C   0  0  0  0  0  0  0  0  0  0  0  0
   -0.0371    1.7089    0.0000 C   0  0  0  0  0  0  0  0  0  0  0  0
    0.6774    1.2964    0.0000 C   0  0  0  0  0  0  0  0  0  0  0  0
    1.3918    1.7089    0.0000 N   0  0  0  0  0  0  0  0  0  0  0  0
    2.1063    1.2964    0.0000 C   0  0  0  0  0  0  0  0  0  0  0  0
    2.8208    1.7089    0.0000 C   0  0  0  0  0  0  0  0  0  0  0  0
    3.5353    1.2964    0.0000 C   0  0  0  0  0  0  0  0  0  0  0  0
    4.2497    1.7089    0.0000 O   0  0  0  0  0  0  0  0  0  0  0  0
    0.6774    0.4714    0.0000 O   0  0  0  0  0  0  0  0  0  0  0  0
   -0.0371    2.5339    0.0000 O   0  0  0  0  0  0  0  0  0  0  0  0
   -1.1641    0.5820    0.0000 C   0  0  0  0  0  0  0  0  0  0  0  0
   -0.3391    0.5820    0.0000 C   0  0  0  0  0  0  0  0  0  0  0  0
  1  2  1  0
  2  3  1  0
  3  4  1  0
  4  5  1  0
  5  6  1  0
  6  7  1  0
  7  8  1  0
  8  9  1  0
  9 10  1  0
  5 11  2  0
  4 12  1  1
  3 13  1  0
  3 14  1  0
M  END
$$$$
