
     RDKit          2D

 23 24  0  0  0  0  0  0  0  0999 V2000
   -0.7141   -1.6592    0.0000 C   0  0  0  0  0  0  0  0  0  0  0  0
    0.0022   -1.2459    0.0000 C   0  0  0  0  0  0  0  0  0  0  0  0
   -0.0006   -0.4155    0.0000 C   0  0  0  0  0  0  0  0  0  0  0  0
   -0.7159   -0.0063    0.0000 C   0  0  0  0  0  0  0  0  0  0  0  0
   -1.4289   -1.2464    0.0000 C   0  0  0  0  0  0  0  0  0  0  0  0
   -1.4246   -0.4191    0.0000 C   0  0  0  0  0  0  0  0  0  0  0  0
   -2.8584   -1.2392    0.0000 C   0  0  0  0  0  0  0  0  0  0  0  0
   -2.8543   -0.4118    0.0000 C   0  0  0  0  0  0  0  0  0  0  0  0
   -2.1308   -0.0061    0.0000 C   0  0  0  0  0  0  0  0  0  0  0  0
   -2.1204    0.8187    0.0000 C   0  0  0  0  0  0  0  0  0  0  0  0
   -2.8318    1.2440    0.0000 C   0  0  0  0  0  0  0  0  0  0  0  0
   -3.5555    0.8383    0.0000 C   0  0  0  0  0  0  0  0  0  0  0  0
   -3.5675    0.0072    0.0000 C   0  0  0  0  0  0  0  0  0  0  0  0
   -2.8205    2.0689    0.0000 C   0  0  0  0  0  0  0  0  0  0  0  0
   -0.7191    0.8186    0.0000 O   0  0  0  0  0  0  0  0  0  0  0  0
    0.7173   -1.6573    0.0000 C   0  0  0  0  0  0  0  0  0  0  0  0
    1.4310   -1.2436    0.0000 C   0  0  0  0  0  0  0  0  0  0  0  0
    2.1461   -1.6550    0.0000 C   0  0  0  0  0  0  0  0  0  0  0  0
    2.8598   -1.2414    0.0000 C   0  0  0  0  0  0  0  0  0  0  0  0
    3.5749   -1.6528    0.0000 C   0  0  0  0  0  0  0  0  0  0  0  0
   -2.1461   -1.6553    0.0000 C   0  0  0  0  0  0  0  0  0  0  0  0
   -3.5749   -1.6481    0.0000 C   0  0  0  0  0  0  0  0  0  0  0  0
   -1.4346   -2.0689    0.0000 O   0  0  0  0  0  0  0  0  0  0  0  0
  8 13  1  0
  9 10  1  0
 10 11  2  0
 11 12  1  0
 12 13  1  0
  2  3  1  0
 11 14  1  0
  9  6  1  1
  4 15  1  0
  8  7  1  6
  2 16  1  0
  8  9  1  0
 16 17  1  0
 17 18  1  0
  3  4  2  0
 18 19  1  0
  4  6  1  0
 19 20  1  0
  5  6  2  0
  7 21  2  3
  1  2  2  0
  7 22  1  0
  5  1  1  0
  5 23  1  0
M  END
$$$$
