
     RDKit          2D

 19 20  0  0  0  0  0  0  0  0999 V2000
   -3.2373   -0.2075    0.0000 C   0  0  0  0  0  0  0  0  0  0  0  0
   -3.2373   -1.0325    0.0000 C   0  0  0  0  0  0  0  0  0  0  0  0
   -2.5229   -1.4450    0.0000 C   0  0  0  0  0  0  0  0  0  0  0  0
   -1.8084   -1.0325    0.0000 C   0  0  0  0  0  0  0  0  0  0  0  0
   -1.8084   -0.2075    0.0000 C   0  0  0  0  0  0  0  0  0  0  0  0
   -2.5229    0.2049    0.0000 C   0  0  0  0  0  0  0  0  0  0  0  0
   -1.0791    0.2049    0.0000 C   0  0  0  0  0  0  0  0  0  0  0  0
   -0.3646   -0.2075    0.0000 C   0  0  0  0  0  0  0  0  0  0  0  0
    0.3497    0.2049    0.0000 C   0  0  0  0  0  0  0  0  0  0  0  0
    1.0642   -0.2075    0.0000 C   0  0  0  0  0  0  0  0  0  0  0  0
    1.7787    0.2049    0.0000 N   0  0  0  0  0  0  0  0  0  0  0  0
    2.5053   -0.2147    0.0000 C   0  0  0  0  0  0  0  0  0  0  0  0
    3.2199    0.1976    0.0000 C   0  0  0  0  0  0  0  0  0  0  0  0
    3.2200    1.0226    0.0000 C   0  0  0  0  0  0  0  0  0  0  0  0
    2.4934    1.4423    0.0000 C   0  0  0  0  0  0  0  0  0  0  0  0
    1.7788    1.0299    0.0000 C   0  0  0  0  0  0  0  0  0  0  0  0
   -3.9518   -1.4450    0.0000 F   0  0  0  0  0  0  0  0  0  0  0  0
   -1.0755    1.0297    0.0000 O   0  0  0  0  0  0  0  0  0  0  0  0
    3.9518    1.4450    0.0000 C   0  0  0  0  0  0  0  0  0  0  0  0
  1  2  2  0
  2  3  1  0
  3  4  2  0
  4  5  1  0
  5  6  2  0
  1  6  1  0
  5  7  1  0
  7  8  1  0
  8  9  1  0
  9 10  1  0
 10 11  1  0
 11 12  1  0
 12 13  1  0
 13 14  1  0
 14 15  1  0
 15 16  1  0
 11 16  1  0
  2 17  1  0
  7 18  2  0
 14 19  1  0
M  END
$$$$
