
     RDKit          2D

 17 18  0  0  0  0  0  0  0  0999 V2000
    2.5528   -1.3543    0.0000 O   0  0  0  0  0  0  0  0  0  0  0  0
   -0.6339    0.9260    0.0000 O   0  0  0  0  0  0  0  0  0  0  0  0
   -2.0634   -1.5545    0.0000 O   0  0  0  0  0  0  0  0  0  0  0  0
    2.2970    0.7647    0.0000 N   0  0  0  0  0  0  0  0  0  0  0  0
   -0.6339   -0.7257    0.0000 N   0  0  0  0  0  0  0  0  0  0  0  0
   -1.3515   -0.3142    0.0000 N   0  0  0  0  0  0  0  0  0  0  0  0
   -2.7809   -0.3142    0.0000 N   0  0  0  0  0  0  0  0  0  0  0  0
    1.5072   -0.3142    0.0000 C   0  0  0  0  0  0  0  0  0  0  0  0
    1.5072    0.5089    0.0000 C   0  0  0  0  0  0  0  0  0  0  0  0
    2.2970   -0.5700    0.0000 C   0  0  0  0  0  0  0  0  0  0  0  0
    0.0778   -0.3142    0.0000 C   0  0  0  0  0  0  0  0  0  0  0  0
    0.7953   -0.7257    0.0000 C   0  0  0  0  0  0  0  0  0  0  0  0
    0.0778    0.5089    0.0000 C   0  0  0  0  0  0  0  0  0  0  0  0
    0.7953    0.9260    0.0000 C   0  0  0  0  0  0  0  0  0  0  0  0
    2.7809    0.0973    0.0000 C   0  0  0  0  0  0  0  0  0  0  0  0
    2.5473    1.5545    0.0000 C   0  0  0  0  0  0  0  0  0  0  0  0
   -2.0634   -0.7313    0.0000 C   0  0  0  0  0  0  0  0  0  0  0  0
  1 10  1  0
  2 13  2  0
  3 17  2  0
  4  9  1  0
  4 15  1  0
  4 16  1  0
  5  6  1  0
  5 11  2  0
  6 17  1  0
  7 17  1  0
  8  9  1  0
  8 10  1  0
  8 12  2  0
  9 14  2  0
 10 15  1  0
 11 12  1  0
 11 13  1  0
 13 14  1  0
M  END
$$$$
