
     RDKit          2D

  5  4  0  0  0  0  0  0  0  0999 V2000
   16.2523   -9.8275    0.0000 O   0  0  0  0  0  0  0  0  0  0  0  0
   16.6648  -10.5419    0.0000 P   0  0  0  0  0  0  0  0  0  0  0  0
   15.9504  -10.9544    0.0000 O   0  0  0  0  0  0  0  0  0  0  0  0
   17.0773  -11.2564    0.0000 O   0  0  0  0  0  0  0  0  0  0  0  0
   17.3793  -10.1294    0.0000 O   0  0  0  0  0  0  0  0  0  0  0  0
  2  1  2  0
  3  2  1  0
  4  2  1  0
  5  2  1  0
M  END
$$$$
