
     RDKit          2D

 26 27  0  0  0  0  0  0  0  0999 V2000
   -0.1231    1.0866    0.0000 O   0  0  0  0  0  0  0  0  0  0  0  0
    0.7896   -0.8766    0.0000 O   0  0  0  0  0  0  0  0  0  0  0  0
   -1.0432   -0.8766    0.0000 O   0  0  0  0  0  0  0  0  0  0  0  0
   -2.2096    0.3331    0.0000 O   0  0  0  0  0  0  0  0  0  0  0  0
    2.1661   -0.3332    0.0000 O   0  0  0  0  0  0  0  0  0  0  0  0
    0.1666   -2.0429    0.0000 O   0  0  0  0  0  0  0  0  0  0  0  0
    3.6222    2.1226    0.0000 O   0  0  0  0  0  0  0  0  0  0  0  0
   -0.3188   -2.1081    0.0000 O   0  0  0  0  0  0  0  0  0  0  0  0
   -2.9123    1.4995    0.0000 O   0  0  0  0  0  0  0  0  0  0  0  0
    1.4561    0.8765    0.0000 N   0  0  0  0  0  0  0  0  0  0  0  0
    2.8759    0.8765    0.0000 N   0  0  0  0  0  0  0  0  0  0  0  0
    0.5432    0.6230    0.0000 C   0  0  0  0  0  0  0  0  0  0  0  0
    0.2897   -0.2101    0.0000 C   0  0  0  0  0  0  0  0  0  0  0  0
   -0.5432   -0.2101    0.0000 C   0  0  0  0  0  0  0  0  0  0  0  0
   -0.7896    0.5867    0.0000 C   0  0  0  0  0  0  0  0  0  0  0  0
    2.1661    0.4998    0.0000 C   0  0  0  0  0  0  0  0  0  0  0  0
    1.4561    1.7096    0.0000 C   0  0  0  0  0  0  0  0  0  0  0  0
   -1.5792    0.8331    0.0000 C   0  0  0  0  0  0  0  0  0  0  0  0
    0.7896   -1.7096    0.0000 C   0  0  0  0  0  0  0  0  0  0  0  0
    2.8759    1.7096    0.0000 C   0  0  0  0  0  0  0  0  0  0  0  0
    2.1661    2.1226    0.0000 C   0  0  0  0  0  0  0  0  0  0  0  0
   -1.0432   -1.6879    0.0000 C   0  0  0  0  0  0  0  0  0  0  0  0
   -2.9123    0.7534    0.0000 C   0  0  0  0  0  0  0  0  0  0  0  0
    1.4995   -2.1226    0.0000 C   0  0  0  0  0  0  0  0  0  0  0  0
   -1.7459   -2.1008    0.0000 C   0  0  0  0  0  0  0  0  0  0  0  0
   -3.6222    0.3331    0.0000 C   0  0  0  0  0  0  0  0  0  0  0  0
  1 12  1  0
  1 15  1  0
 13  2  1  6
  2 19  1  0
 14  3  1  6
  3 22  1  0
  4 18  1  0
  4 23  1  0
  5 16  2  0
  6 19  2  0
  7 20  2  0
  8 22  2  0
  9 23  2  0
 12 10  1  1
 10 16  1  0
 10 17  1  0
 11 16  1  0
 11 20  1  0
 12 13  1  0
 13 14  1  0
 14 15  1  0
 15 18  1  1
 17 21  2  0
 19 24  1  0
 20 21  1  0
 22 25  1  0
 23 26  1  0
M  END
$$$$
