
     RDKit          2D

 26 28  0  0  0  0  0  0  0  0999 V2000
    6.3235    6.0027    0.0000 C   0  0  0  0  0  0  0  0  0  0  0  0
    3.7676    1.0206    0.0000 C   0  0  0  0  0  0  0  0  0  0  0  0
    4.5926    1.0206    0.0000 C   0  0  0  0  0  0  0  0  0  0  0  0
    2.0367    6.0027    0.0000 C   0  0  0  0  0  0  0  0  0  0  0  0
    1.3222    5.5902    0.0000 C   0  0  0  0  0  0  0  0  0  0  0  0
    2.7512    5.5902    0.0000 C   0  0  0  0  0  0  0  0  0  0  0  0
    4.8946    6.0027    0.0000 C   0  0  0  0  0  0  0  0  0  0  0  0
    5.6091    4.7652    0.0000 C   0  0  0  0  0  0  0  0  0  0  0  0
    4.1801    5.5902    0.0000 C   0  0  0  0  0  0  0  0  0  0  0  0
    4.8946    4.3526    0.0000 C   0  0  0  0  0  0  0  0  0  0  0  0
    0.6078    4.3526    0.0000 C   0  0  0  0  0  0  0  0  0  0  0  0
   -0.1067    4.7652    0.0000 C   0  0  0  0  0  0  0  0  0  0  0  0
    3.4656    3.5277    0.0000 C   0  0  0  0  0  0  0  0  0  0  0  0
    3.5127    1.8053    0.0000 C   0  0  0  0  0  0  0  0  0  0  0  0
    4.8476    1.8053    0.0000 C   0  0  0  0  0  0  0  0  0  0  0  0
    4.1801    3.1152    0.0000 C   0  0  0  0  0  0  0  0  0  0  0  0
    5.6091    5.5902    0.0000 C   0  0  0  0  0  0  0  0  0  0  0  0
    4.1801    4.7652    0.0000 C   0  0  0  0  0  0  0  0  0  0  0  0
    1.3222    4.7652    0.0000 C   0  0  0  0  0  0  0  0  0  0  0  0
    3.4656    4.3526    0.0000 C   0  0  0  0  0  0  0  0  0  0  0  0
    2.7512    4.7652    0.0000 C   0  0  0  0  0  0  0  0  0  0  0  0
   -0.8212    4.3526    0.0000 C   0  0  0  0  0  0  0  0  0  0  0  0
    2.0367    4.3526    0.0000 N   0  0  0  0  0  0  0  0  0  0  0  0
    4.1801    2.2902    0.0000 N   0  0  0  0  0  0  0  0  0  0  0  0
   -0.8212    3.5277    0.0000 O   0  0  0  0  0  0  0  0  0  0  0  0
   -1.5356    4.7652    0.0000 O   0  0  0  0  0  0  0  0  0  0  0  0
  3  2  1  0
  5  4  2  0
  6  4  1  0
  9  7  2  0
 10  8  1  0
 12 11  2  0
 14  2  1  0
 15  3  1  0
 16 13  1  0
 17  1  1  0
 17  7  1  0
 17  8  2  0
 18  9  1  0
 18 10  2  0
 19  5  1  0
 19 11  1  0
 20 13  2  0
 20 18  1  0
 21  6  2  0
 21 20  1  0
 22 12  1  0
 23 19  2  0
 23 21  1  0
 24 14  1  0
 24 15  1  0
 24 16  1  0
 25 22  2  0
 26 22  1  0
M  END
$$$$
