
     RDKit          2D

 10 10  0  0  0  0  0  0  0  0999 V2000
   -0.2852    0.0000    0.0000 C   0  0  0  0  0  0  0  0  0  0  0  0
   -1.0032   -0.4123    0.0000 C   0  0  0  0  0  0  0  0  0  0  0  0
    0.4294   -0.4123    0.0000 C   0  0  0  0  0  0  0  0  0  0  0  0
   -0.2852    0.8246    0.0000 C   0  0  0  0  0  0  0  0  0  0  0  0
   -1.0032   -1.2369    0.0000 C   0  0  0  0  0  0  0  0  0  0  0  0
    0.4294   -1.2369    0.0000 C   0  0  0  0  0  0  0  0  0  0  0  0
    0.4329    1.2403    0.0000 C   0  0  0  0  0  0  0  0  0  0  0  0
   -0.2852   -1.6526    0.0000 C   0  0  0  0  0  0  0  0  0  0  0  0
    0.4329    2.0615    0.0000 O   0  0  0  0  0  0  0  0  0  0  0  0
    1.1441    0.8280    0.0000 O   0  0  0  0  0  0  0  0  0  0  0  0
  1  2  2  0
  1  3  1  0
  1  4  1  0
  2  5  1  0
  3  6  2  0
  4  7  1  0
  5  8  2  0
  7  9  1  0
  7 10  2  0
  6  8  1  0
M  END
$$$$
