
     RDKit          2D

 25 28  0  0  0  0  0  0  0  0999 V2000
    1.4260    1.6594    0.0000 C   0  0  0  0  0  0  0  0  0  0  0  0
    1.4260    0.8343    0.0000 C   0  0  0  0  0  0  0  0  0  0  0  0
    1.4260    0.0010    0.0000 C   0  0  0  0  0  0  0  0  0  0  0  0
    2.1385    1.2499    0.0000 C   0  0  0  0  0  0  0  0  0  0  0  0
    0.7135    1.2499    0.0000 C   0  0  0  0  0  0  0  0  0  0  0  0
    0.7135   -0.4146    0.0000 C   0  0  0  0  0  0  0  0  0  0  0  0
    2.8510    0.0010    0.0000 C   0  0  0  0  0  0  0  0  0  0  0  0
    2.1385    2.0750    0.0000 C   0  0  0  0  0  0  0  0  0  0  0  0
    2.8530    1.6614    0.0000 C   0  0  0  0  0  0  0  0  0  0  0  0
    2.8510    0.8343    0.0000 C   0  0  0  0  0  0  0  0  0  0  0  0
    0.0010    0.8343    0.0000 C   0  0  0  0  0  0  0  0  0  0  0  0
    0.0010    0.0010    0.0000 C   0  0  0  0  0  0  0  0  0  0  0  0
    0.7135   -1.2458    0.0000 C   0  0  0  0  0  0  0  0  0  0  0  0
    2.8530    2.4865    0.0000 C   0  0  0  0  0  0  0  0  0  0  0  0
    1.4240    2.4865    0.0000 O   0  0  0  0  0  0  0  0  0  0  0  0
   -0.7114   -0.4146    0.0000 C   0  0  0  0  0  0  0  0  0  0  0  0
    0.0010   -1.6614    0.0000 C   0  0  0  0  0  0  0  0  0  0  0  0
   -0.7114    0.4104    0.0000 C   0  0  0  0  0  0  0  0  0  0  0  0
   -0.7114   -1.2458    0.0000 C   0  0  0  0  0  0  0  0  0  0  0  0
   -1.4261    0.0010    0.0000 C   0  0  0  0  0  0  0  0  0  0  0  0
    0.0010   -2.4865    0.0000 C   0  0  0  0  0  0  0  0  0  0  0  0
   -1.4261   -1.6614    0.0000 C   0  0  0  0  0  0  0  0  0  0  0  0
   -2.1385   -0.4146    0.0000 C   0  0  0  0  0  0  0  0  0  0  0  0
   -2.1385   -1.2458    0.0000 C   0  0  0  0  0  0  0  0  0  0  0  0
   -2.8530   -1.6573    0.0000 O   0  0  0  0  0  0  0  0  0  0  0  0
  2  1  1  1
  3  2  1  0
  2  4  1  0
  2  5  1  0
  6  3  1  0
  3  7  1  1
  4  8  1  0
  4  9  1  6
  4 10  1  0
  5 11  1  0
 12  6  1  0
  6 13  1  6
  7 10  1  0
  8 14  1  0
  8 15  2  0
 12 11  1  1
 12 16  1  0
 13 17  2  0
 16 18  1  1
 16 19  1  0
 16 20  1  0
 17 19  1  0
 17 21  1  0
 19 22  2  0
 20 23  1  0
 22 24  1  0
 23 24  1  0
 24 25  2  0
M  END
$$$$
