 
     RDKit          2D

 29 33  0  0  1  0  0  0  0  0999 V2000
   21.6997  -16.5816    0.0000 C   0  0  0  0  0  0  0  0  0  0  0  0
   22.4010  -16.9941    0.0000 N   0  0  0  0  0  0  0  0  0  0  0  0
   20.9985  -16.9941    0.0000 C   0  0  0  0  0  0  0  0  0  0  0  0
   21.6997  -15.7566    0.0000 C   0  0  0  0  0  0  0  0  0  0  0  0
   22.4010  -17.8192    0.0000 C   0  0  0  0  0  0  0  0  0  0  0  0
   23.1435  -16.5816    0.0000 C   0  0  0  0  0  0  0  0  0  0  0  0
   20.2559  -16.5816    0.0000 C   0  0  0  0  0  0  0  0  0  0  0  0
   22.4010  -15.3441    0.0000 C   0  0  0  0  0  0  0  0  0  0  0  0
   20.9985  -15.3441    0.0000 C   0  0  0  0  0  0  0  0  0  0  0  0
   22.8135  -18.5204    0.0000 C   0  0  0  0  0  0  0  0  0  0  0  0
   21.9885  -18.5204    0.0000 C   0  0  0  0  0  0  0  0  0  0  0  0
   23.1435  -15.7566    0.0000 C   0  0  0  0  0  0  0  0  0  0  0  0
   19.5960  -17.1179    0.0000 N   0  0  0  0  0  0  0  0  0  0  0  0
   20.2559  -15.7566    0.0000 C   0  0  0  0  0  0  0  0  0  0  0  0
   22.4010  -14.5603    0.0000 O   0  0  0  0  0  0  0  0  0  0  0  0
   23.8448  -15.3441    0.0000 C   0  0  0  0  0  0  0  0  0  0  0  0
   19.1009  -16.4578    0.0000 C   0  0  0  0  0  0  0  0  0  0  0  0
   19.1009  -17.7779    0.0000 C   0  0  0  0  0  0  0  0  0  0  0  0
   19.5546  -15.3441    0.0000 F   0  0  0  0  0  0  0  0  0  0  0  0
   24.5461  -15.7566    0.0000 O   0  0  0  0  0  0  0  0  0  0  0  0
   23.8448  -14.5603    0.0000 O   0  0  0  0  0  0  0  0  0  0  0  0
   18.3172  -16.7054    0.0000 C   0  0  0  0  0  0  0  0  0  0  0  0
   18.3172  -17.5304    0.0000 C   0  0  0  0  0  0  0  0  0  0  0  0
   17.5746  -16.2929    0.0000 O   0  0  0  0  0  0  0  0  0  0  0  0
   17.6159  -17.9429    0.0000 N   0  0  0  0  0  0  0  0  0  0  0  0
   16.8733  -16.7054    0.0000 C   0  0  0  0  0  0  0  0  0  0  0  0
   16.8733  -17.5304    0.0000 C   0  0  0  0  0  0  0  0  0  0  0  0
   21.0086  -17.8191    0.0000 C   0  0  0  0  0  0  0  0  0  0  0  0
   21.0086  -18.6441    0.0000 N   0  0  0  0  0  0  0  0  0  0  0  0
  1  2  1  0
  1  3  2  0
  1  4  1  0
  2  5  1  0
  2  6  1  0
  3  7  1  0
  4  8  1  0
  4  9  2  0
  5 10  1  0
  5 11  1  0
  6 12  2  0
  7 13  1  0
  7 14  2  0
  8 15  2  0
 12 16  1  0
 13 17  1  0
 13 18  1  0
 14 19  1  0
 16 20  1  0
 16 21  2  0
 22 17  1  1
 23 18  1  6
 22 24  1  0
 23 25  1  0
 24 26  1  0
 25 27  1  0
  8 12  1  0
  9 14  1  0
 10 11  1  0
 22 23  1  0
 26 27  1  0
  3 28  1  0
 28 29  3  0
M  END
$$$$
