
     RDKit          2D

 20 23  0  0  0  0  0  0  0  0999 V2000
   -0.4571    0.0415    0.0000 C   0  0  0  0  0  0  0  0  0  0  0  0
   -0.9558    0.7065    0.0000 C   0  0  0  0  0  0  0  0  0  0  0  0
   -0.7481    1.4962    0.0000 C   0  0  0  0  0  0  0  0  0  0  0  0
    0.0000    1.8702    0.0000 C   0  0  0  0  0  0  0  0  0  0  0  0
    0.3740    0.0415    0.0000 C   0  0  0  0  0  0  0  0  0  0  0  0
    0.7481    1.4962    0.0000 C   0  0  0  0  0  0  0  0  0  0  0  0
    0.9143    0.6650    0.0000 C   0  0  0  0  0  0  0  0  0  0  0  0
   -1.3299    2.0780    0.0000 C   0  0  0  0  0  0  0  0  0  0  0  0
   -2.1196    1.8702    0.0000 C   0  0  0  0  0  0  0  0  0  0  0  0
   -2.3273    1.0390    0.0000 C   0  0  0  0  0  0  0  0  0  0  0  0
   -1.7455    0.4987    0.0000 C   0  0  0  0  0  0  0  0  0  0  0  0
    1.7039    0.4156    0.0000 C   0  0  0  0  0  0  0  0  0  0  0  0
    2.3273    0.9558    0.0000 C   0  0  0  0  0  0  0  0  0  0  0  0
    2.1611    1.7870    0.0000 C   0  0  0  0  0  0  0  0  0  0  0  0
    1.3715    2.0364    0.0000 C   0  0  0  0  0  0  0  0  0  0  0  0
   -0.8727   -0.6650    0.0000 C   0  0  0  0  0  0  0  0  0  0  0  0
   -0.4571   -1.3715    0.0000 N   0  0  0  0  0  0  0  0  0  0  0  0
    0.3740   -1.3715    0.0000 C   0  0  0  0  0  0  0  0  0  0  0  0
    0.7896   -0.6650    0.0000 C   0  0  0  0  0  0  0  0  0  0  0  0
   -0.9143   -2.0780    0.0000 C   0  0  0  0  0  0  0  0  0  0  0  0
  3  4  1  0
  1  5  2  0
  4  6  1  0
  2  3  2  0
  5  7  1  0
  1  2  1  0
  6  7  2  0
  3  8  1  0
  8  9  2  0
  9 10  1  0
 10 11  2  0
  2 11  1  0
  7 12  1  0
 12 13  2  0
 13 14  1  0
 14 15  2  0
  6 15  1  0
  1 16  1  0
 16 17  1  0
 17 18  1  0
 18 19  1  0
  5 19  1  0
 17 20  1  0
M  END
$$$$
