
     RDKit          2D

 26 29  0  0  0  0  0  0  0  0999 V2000
    3.2547   -0.1813    0.0000 O   0  0  0  0  0  0  0  0  0  0  0  0
   -3.2546   -1.1710    0.0000 O   0  0  0  0  0  0  0  0  0  0  0  0
    0.8387    2.0389    0.0000 O   0  0  0  0  0  0  0  0  0  0  0  0
    2.2640    2.1420    0.0000 O   0  0  0  0  0  0  0  0  0  0  0  0
    1.6179   -0.2997    0.0000 C   0  0  0  0  0  0  0  0  0  0  0  0
    1.3377   -1.0756    0.0000 C   0  0  0  0  0  0  0  0  0  0  0  0
    2.4426   -0.3265    0.0000 C   0  0  0  0  0  0  0  0  0  0  0  0
    0.5256   -1.2208    0.0000 C   0  0  0  0  0  0  0  0  0  0  0  0
   -0.0062   -0.5901    0.0000 C   0  0  0  0  0  0  0  0  0  0  0  0
   -0.8184   -0.7353    0.0000 C   0  0  0  0  0  0  0  0  0  0  0  0
    1.0862    0.3309    0.0000 C   0  0  0  0  0  0  0  0  0  0  0  0
    1.9890   -1.5820    0.0000 C   0  0  0  0  0  0  0  0  0  0  0  0
    2.6719   -1.1190    0.0000 C   0  0  0  0  0  0  0  0  0  0  0  0
   -1.0986   -1.5112    0.0000 C   0  0  0  0  0  0  0  0  0  0  0  0
    0.2740    0.1857    0.0000 C   0  0  0  0  0  0  0  0  0  0  0  0
    0.2452   -1.9967    0.0000 C   0  0  0  0  0  0  0  0  0  0  0  0
    2.3830    0.4963    0.0000 C   0  0  0  0  0  0  0  0  0  0  0  0
    1.9779    0.4426    0.0000 C   0  0  0  0  0  0  0  0  0  0  0  0
   -0.5668   -2.1420    0.0000 C   0  0  0  0  0  0  0  0  0  0  0  0
   -1.3501   -0.1046    0.0000 C   0  0  0  0  0  0  0  0  0  0  0  0
   -1.9108   -1.6565    0.0000 C   0  0  0  0  0  0  0  0  0  0  0  0
   -0.5380    0.0405    0.0000 C   0  0  0  0  0  0  0  0  0  0  0  0
   -2.4425   -1.0258    0.0000 C   0  0  0  0  0  0  0  0  0  0  0  0
   -2.1622   -0.2498    0.0000 C   0  0  0  0  0  0  0  0  0  0  0  0
    1.6406    0.8561    0.0000 C   0  0  0  0  0  0  0  0  0  0  0  0
    1.5811    1.6790    0.0000 C   0  0  0  0  0  0  0  0  0  0  0  0
  7  1  1  1
  2 23  2  0
  3 26  1  0
  4 26  2  0
  5  6  1  0
  5  7  1  0
  5 11  1  0
  5 18  1  1
  6  8  1  0
  6 12  1  1
  7 13  1  0
  7 17  1  0
  8  9  1  0
  8 16  1  6
  9 10  1  0
  9 15  1  1
 10 14  1  0
 10 20  1  0
 10 22  1  1
 11 15  1  0
 12 13  1  0
 14 19  1  0
 14 21  2  0
 16 19  2  0
 17 25  1  0
 20 24  1  0
 21 23  1  0
 23 24  1  0
 25 26  1  0
M  END
$$$$
