
     RDKit          2D

 11 10  0  0  0  0  0  0  0  0999 V2000
    0.0000   -0.4946    0.0000 Si  0  0  0  0  0  4  0  0  0  0  0  0
    1.0779    0.5833    0.0000 Si  0  0  0  0  0  4  0  0  0  0  0  0
   -1.0779    0.5833    0.0000 Si  0  0  0  0  0  4  0  0  0  0  0  0
    0.7622   -0.1788    0.0000 O   0  0  0  0  0  0  0  0  0  0  0  0
   -0.7622   -0.1788    0.0000 O   0  0  0  0  0  0  0  0  0  0  0  0
   -0.5833   -1.0780    0.0000 O   0  0  0  0  0  0  0  0  0  0  0  0
    0.5834   -1.0780    0.0000 O   0  0  0  0  0  0  0  0  0  0  0  0
    0.7622    1.3456    0.0000 O   0  0  0  0  0  0  0  0  0  0  0  0
   -0.7622    1.3456    0.0000 O   0  0  0  0  0  0  0  0  0  0  0  0
    1.9030    0.5833    0.0000 O   0  0  0  0  0  0  0  0  0  0  0  0
   -1.9030    0.5833    0.0000 O   0  0  0  0  0  0  0  0  0  0  0  0
  1  4  1  0
  1  5  1  0
  1  6  1  0
  1  7  1  0
  2  4  1  0
  2  8  1  0
  2 10  2  0
  3  5  1  0
  3  9  1  0
  3 11  2  0
M  CHG  4   6  -1   7  -1   8  -1   9  -1
M  END
$$$$
