
     RDKit          2D

 15 16  0  0  0  0  0  0  0  0999 V2000
   -2.3312    0.1673    0.0000 C   0  0  0  0  0  0  0  0  0  0  0  0
   -2.3312   -0.6577    0.0000 C   0  0  0  0  0  0  0  0  0  0  0  0
   -1.6167   -1.0703    0.0000 C   0  0  0  0  0  0  0  0  0  0  0  0
   -0.9021   -0.6577    0.0000 C   0  0  0  0  0  0  0  0  0  0  0  0
   -0.9021    0.1673    0.0000 C   0  0  0  0  0  0  0  0  0  0  0  0
   -1.6167    0.5798    0.0000 C   0  0  0  0  0  0  0  0  0  0  0  0
   -1.6167   -1.8952    0.0000 C   0  0  0  0  0  0  0  0  0  0  0  0
   -0.1765    0.5863    0.0000 N   0  0  0  0  0  0  0  0  0  0  0  0
    0.6028    0.3380    0.0000 C   0  0  0  0  0  0  0  0  0  0  0  0
    1.0810    1.0029    0.0000 C   0  0  0  0  0  0  0  0  0  0  0  0
    0.5965    1.6633    0.0000 O   0  0  0  0  0  0  0  0  0  0  0  0
   -0.1812    1.4065    0.0000 C   0  0  0  0  0  0  0  0  0  0  0  0
   -0.8607    1.8952    0.0000 O   0  0  0  0  0  0  0  0  0  0  0  0
    1.9197    1.0068    0.0000 C   0  0  0  0  0  0  0  0  0  0  0  0
    2.3312    0.3018    0.0000 O   0  0  0  0  0  0  0  0  0  0  0  0
  1  2  2  0
  2  3  1  0
  3  4  2  0
  4  5  1  0
  5  6  2  0
  1  6  1  0
  3  7  1  0
  5  8  1  0
  8  9  1  0
  9 10  1  0
 10 11  1  0
 11 12  1  0
  8 12  1  0
 12 13  2  0
 10 14  1  0
 14 15  1  0
M  END
$$$$
