
     RDKit          2D

 16 17  0  0  0  0  0  0  0  0999 V2000
    5.0013    5.9411    0.0000 C   0  0  0  0  0  0  0  0  0  0  0  0
    4.2868    3.0536    0.0000 C   0  0  0  0  0  0  0  0  0  0  0  0
    1.7309    2.1965    0.0000 C   0  0  0  0  0  0  0  0  0  0  0  0
    2.5559    2.1965    0.0000 C   0  0  0  0  0  0  0  0  0  0  0  0
    4.2868    5.5286    0.0000 C   0  0  0  0  0  0  0  0  0  0  0  0
    2.8579    4.7036    0.0000 C   0  0  0  0  0  0  0  0  0  0  0  0
    2.8579    5.5286    0.0000 C   0  0  0  0  0  0  0  0  0  0  0  0
    3.5724    4.2911    0.0000 C   0  0  0  0  0  0  0  0  0  0  0  0
    2.1434    3.4661    0.0000 C   0  0  0  0  0  0  0  0  0  0  0  0
    2.1434    5.9411    0.0000 Cl  0  0  0  0  0  0  0  0  0  0  0  0
    1.4760    2.9812    0.0000 N   0  0  0  0  0  0  0  0  0  0  0  0
    2.8109    2.9812    0.0000 N   0  0  0  0  0  0  0  0  0  0  0  0
    3.5724    5.9411    0.0000 N   0  0  0  0  0  0  0  0  0  0  0  0
    4.2868    4.7036    0.0000 N   0  0  0  0  0  0  0  0  0  0  0  0
    2.1434    4.2911    0.0000 N   0  0  0  0  0  0  0  0  0  0  0  0
    3.5724    3.4661    0.0000 O   0  0  0  0  0  0  0  0  0  0  0  0
  4  3  1  0
  5  1  1  0
  7  6  2  0
  8  6  1  0
 10  7  1  0
 11  3  1  0
 11  9  2  0
 12  4  1  0
 12  9  1  0
 13  5  2  0
 13  7  1  0
 14  5  1  0
 14  8  2  0
 15  6  1  0
 15  9  1  0
 16  2  1  0
 16  8  1  0
M  END
$$$$
