
     RDKit          2D

 33 37  0  0  1  0  0  0  0  0999 V2000
    0.7477   -5.5585    0.0000 C   0  0  0  0  0  0  0  0  0  0  0  0
    0.1957   -4.9454    0.0000 C   0  0  0  0  0  0  0  0  0  0  0  0
    0.4506   -4.1608    0.0000 C   0  0  0  0  0  0  0  0  0  0  0  0
    1.2576   -3.9892    0.0000 O   0  0  0  0  0  0  0  0  0  0  0  0
   -0.1013   -3.5477    0.0000 N   0  0  0  0  0  0  0  0  0  0  0  0
   -0.9083   -3.7192    0.0000 C   0  0  0  0  0  0  0  0  0  0  0  0
   -1.4603   -3.1061    0.0000 C   0  0  0  0  0  0  0  0  0  0  0  0
   -1.2054   -2.3215    0.0000 C   0  0  0  0  0  0  0  0  0  0  0  0
   -0.3984   -2.1500    0.0000 C   0  0  0  0  0  0  0  0  0  0  0  0
    0.1535   -2.7630    0.0000 C   0  0  0  0  0  0  0  0  0  0  0  0
   -0.1435   -1.3653    0.0000 N   0  0  0  0  0  0  0  0  0  0  0  0
    0.6411   -1.1104    0.0000 C   0  0  0  0  0  0  0  0  0  0  0  0
    0.6411   -0.2854    0.0000 C   0  0  0  0  0  0  0  0  0  0  0  0
   -0.1435   -0.0305    0.0000 C   0  0  0  0  0  0  0  0  0  0  0  0
   -0.6284   -0.6979    0.0000 N   0  0  0  0  0  0  0  0  0  0  0  0
   -0.3984    0.7541    0.0000 C   0  0  0  0  0  0  0  0  0  0  0  0
   -1.2054    0.9256    0.0000 C   0  0  0  0  0  0  0  0  0  0  0  0
   -1.4603    1.7102    0.0000 C   0  0  0  0  0  0  0  0  0  0  0  0
   -0.9083    2.3233    0.0000 C   0  0  0  0  0  0  0  0  0  0  0  0
   -0.1013    2.1518    0.0000 C   0  0  0  0  0  0  0  0  0  0  0  0
    0.1535    1.3672    0.0000 C   0  0  0  0  0  0  0  0  0  0  0  0
   -1.1632    3.1079    0.0000 O   0  0  0  0  0  0  0  0  0  0  0  0
   -0.6112    3.7210    0.0000 C   0  0  0  0  0  0  0  0  0  0  0  0
   -0.8661    4.5056    0.0000 C   0  0  0  0  0  0  0  0  0  0  0  0
   -0.3141    5.1187    0.0000 C   0  0  0  0  0  0  0  0  0  0  0  0
    0.4928    4.9472    0.0000 C   0  0  0  0  0  0  0  0  0  0  0  0
    0.7477    4.1626    0.0000 C   0  0  0  0  0  0  0  0  0  0  0  0
    0.1957    3.5495    0.0000 C   0  0  0  0  0  0  0  0  0  0  0  0
    1.3555    0.1270    0.0000 C   0  0  0  0  0  0  0  0  0  0  0  0
    2.0700   -0.2854    0.0000 N   0  0  0  0  0  0  0  0  0  0  0  0
    2.0700   -1.1104    0.0000 C   0  0  0  0  0  0  0  0  0  0  0  0
    1.3555   -1.5229    0.0000 N   0  0  0  0  0  0  0  0  0  0  0  0
    1.3555    0.9520    0.0000 N   0  0  0  0  0  0  0  0  0  0  0  0
  1  2  2  3
  2  3  1  0
  3  4  2  0
  3  5  1  0
  5  6  1  0
  6  7  1  0
  7  8  1  0
  8  9  1  0
  9 10  1  0
  5 10  1  0
  9 11  1  1
 11 12  1  0
 12 13  2  0
 13 14  1  0
 14 15  2  0
 11 15  1  0
 14 16  1  0
 16 17  2  0
 17 18  1  0
 18 19  2  0
 19 20  1  0
 20 21  2  0
 16 21  1  0
 19 22  1  0
 22 23  1  0
 23 24  2  0
 24 25  1  0
 25 26  2  0
 26 27  1  0
 27 28  2  0
 23 28  1  0
 13 29  1  0
 29 30  2  0
 30 31  1  0
 31 32  2  0
 12 32  1  0
 29 33  1  0
M  END
$$$$
