
     RDKit          2D

 65 74  0  0  1  0  0  0  0  0999 V2000
   -2.3429    5.7818    0.0000 C   0  0  0  0  0  0  0  0  0  0  0  0
   -1.7617    7.0872    0.0000 C   0  0  0  0  0  0  0  0  0  0  0  0
   10.5075    7.1846    0.0000 C   0  0  0  0  0  0  0  0  0  0  0  0
   11.6635    6.3447    0.0000 C   0  0  0  0  0  0  0  0  0  0  0  0
    1.9203    6.2299    0.0000 C   0  0  0  0  0  0  0  0  0  0  0  0
   11.3648    3.5025    0.0000 C   0  0  0  0  0  0  0  0  0  0  0  0
    8.5310    8.1108    0.0000 C   0  0  0  0  0  0  0  0  0  0  0  0
    5.1369    2.9255    0.0000 C   0  0  0  0  0  0  0  0  0  0  0  0
    1.6713    2.1889    0.0000 C   0  0  0  0  0  0  0  0  0  0  0  0
    6.6443    3.5967    0.0000 C   0  0  0  0  0  0  0  0  0  0  0  0
    9.3515    8.0246    0.0000 C   0  0  0  0  0  0  0  0  0  0  0  0
    4.3833    2.5900    0.0000 C   0  0  0  0  0  0  0  0  0  0  0  0
    2.4963    2.1889    0.0000 C   0  0  0  0  0  0  0  0  0  0  0  0
    7.3980    3.9322    0.0000 C   0  0  0  0  0  0  0  0  0  0  0  0
   -3.4871    4.6258    0.0000 C   0  0  0  0  0  0  0  0  0  0  0  0
   -3.4871    3.8008    0.0000 C   0  0  0  0  0  0  0  0  0  0  0  0
    8.8881    7.5622    0.0000 C   0  0  0  0  0  0  0  0  0  0  0  0
    4.5557    4.2309    0.0000 C   0  0  0  0  0  0  0  0  0  0  0  0
    1.6713    3.6178    0.0000 C   0  0  0  0  0  0  0  0  0  0  0  0
    6.0631    4.9021    0.0000 C   0  0  0  0  0  0  0  0  0  0  0  0
   -2.2877    3.5459    0.0000 C   0  0  0  0  0  0  0  0  0  0  0  0
   -0.0510    2.2359    0.0000 C   0  0  0  0  0  0  0  0  0  0  0  0
   -2.2877    4.8807    0.0000 C   0  0  0  0  0  0  0  0  0  0  0  0
   -1.6755    6.2668    0.0000 C   0  0  0  0  0  0  0  0  0  0  0  0
   10.8431    6.4310    0.0000 C   0  0  0  0  0  0  0  0  0  0  0  0
    5.2232    3.7460    0.0000 C   0  0  0  0  0  0  0  0  0  0  0  0
    5.9768    4.0816    0.0000 C   0  0  0  0  0  0  0  0  0  0  0  0
    1.2588    2.9034    0.0000 C   0  0  0  0  0  0  0  0  0  0  0  0
    8.0461    7.4433    0.0000 C   0  0  0  0  0  0  0  0  0  0  0  0
    9.6870    7.2709    0.0000 C   0  0  0  0  0  0  0  0  0  0  0  0
    3.7158    3.0749    0.0000 C   0  0  0  0  0  0  0  0  0  0  0  0
    2.9088    2.9034    0.0000 C   0  0  0  0  0  0  0  0  0  0  0  0
    3.8021    3.8954    0.0000 C   0  0  0  0  0  0  0  0  0  0  0  0
    2.4963    3.6178    0.0000 C   0  0  0  0  0  0  0  0  0  0  0  0
    7.4842    4.7527    0.0000 C   0  0  0  0  0  0  0  0  0  0  0  0
    6.8168    5.2376    0.0000 C   0  0  0  0  0  0  0  0  0  0  0  0
    0.4338    2.9034    0.0000 C   0  0  0  0  0  0  0  0  0  0  0  0
   -1.5030    3.8008    0.0000 C   0  0  0  0  0  0  0  0  0  0  0  0
   -0.9218    5.9312    0.0000 C   0  0  0  0  0  0  0  0  0  0  0  0
   10.3581    5.7635    0.0000 C   0  0  0  0  0  0  0  0  0  0  0  0
    8.3816    6.6897    0.0000 C   0  0  0  0  0  0  0  0  0  0  0  0
   -0.8356    3.3159    0.0000 C   0  0  0  0  0  0  0  0  0  0  0  0
    7.8967    6.0222    0.0000 C   0  0  0  0  0  0  0  0  0  0  0  0
   -0.8356    5.1107    0.0000 C   0  0  0  0  0  0  0  0  0  0  0  0
    9.5377    5.8498    0.0000 C   0  0  0  0  0  0  0  0  0  0  0  0
    0.4992    6.0806    0.0000 C   0  0  0  0  0  0  0  0  0  0  0  0
   10.2088    4.3424    0.0000 C   0  0  0  0  0  0  0  0  0  0  0  0
   -2.7726    4.2133    0.0000 C   0  0  0  0  0  0  0  0  0  0  0  0
    3.0484    4.2309    0.0000 C   0  0  0  0  0  0  0  0  0  0  0  0
    3.2951    5.0182    0.0000 F   0  0  0  0  0  0  0  0  0  0  0  0
    2.5028    4.8498    0.0000 F   0  0  0  0  0  0  0  0  0  0  0  0
   -0.8356    2.4909    0.0000 N   0  0  0  0  0  0  0  0  0  0  0  0
    8.1516    5.2376    0.0000 N   0  0  0  0  0  0  0  0  0  0  0  0
    7.0717    6.0222    0.0000 N   0  0  0  0  0  0  0  0  0  0  0  0
   -0.0510    3.5708    0.0000 N   0  0  0  0  0  0  0  0  0  0  0  0
   -0.2544    6.4161    0.0000 N   0  0  0  0  0  0  0  0  0  0  0  0
   10.6937    5.0099    0.0000 N   0  0  0  0  0  0  0  0  0  0  0  0
   -1.5030    4.6258    0.0000 N   0  0  0  0  0  0  0  0  0  0  0  0
    9.2021    6.6034    0.0000 N   0  0  0  0  0  0  0  0  0  0  0  0
   -0.0819    4.7752    0.0000 O   0  0  0  0  0  0  0  0  0  0  0  0
    9.0527    5.1823    0.0000 O   0  0  0  0  0  0  0  0  0  0  0  0
    0.5854    5.2601    0.0000 O   0  0  0  0  0  0  0  0  0  0  0  0
    9.3883    4.4286    0.0000 O   0  0  0  0  0  0  0  0  0  0  0  0
    1.1666    6.5655    0.0000 O   0  0  0  0  0  0  0  0  0  0  0  0
   10.5443    3.5887    0.0000 O   0  0  0  0  0  0  0  0  0  0  0  0
 11  7  1  0
 12  8  1  0
 13  9  1  0
 14 10  1  0
 16 15  1  0
 24  1  1  0
 24  2  1  0
 25  3  1  0
 25  4  1  0
 26  8  2  0
 26 18  1  0
 27 10  2  0
 27 20  1  0
 27 26  1  0
 28  9  2  0
 28 19  1  0
 29  7  1  1
 29 17  1  0
 30 11  1  1
 30 17  1  0
 31 12  2  0
 32 13  2  0
 32 31  1  0
 33 18  2  0
 33 31  1  0
 34 19  2  0
 34 32  1  0
 35 14  2  0
 36 20  2  0
 36 35  1  0
 37 22  2  0
 37 28  1  0
 38 21  1  0
 39 24  1  0
 40 25  1  0
 41 29  1  0
 38 42  1  6
 41 43  1  6
 44 39  1  0
 45 40  1  0
 48 15  1  0
 48 16  1  0
 48 21  1  0
 48 23  1  0
 49 33  1  0
 49 34  1  0
 50 49  1  0
 51 49  1  0
 52 22  1  0
 52 42  2  0
 53 35  1  0
 53 43  2  0
 54 36  1  0
 54 43  1  0
 55 37  1  0
 55 42  1  0
 39 56  1  6
 56 46  2  3
 40 57  1  6
 57 47  2  3
 58 23  1  0
 58 38  1  0
 58 44  1  0
 59 30  1  0
 59 41  1  0
 59 45  1  0
 60 44  2  0
 61 45  2  0
 46 62  1  0
 47 63  1  0
 64  5  1  0
 64 46  1  0
 65  6  1  0
 65 47  1  0
M  END
$$$$
