
     RDKit          2D

 37 40  0  0  0  0  0  0  0  0999 V2000
   -2.9117   -0.3460    0.0000 C   0  0  0  0  0  0  0  0  0  0  0  0
   -2.9117   -1.1731    0.0000 C   0  0  0  0  0  0  0  0  0  0  0  0
   -2.1943   -1.5866    0.0000 N   0  0  0  0  0  0  0  0  0  0  0  0
   -1.4854   -1.1731    0.0000 C   0  0  0  0  0  0  0  0  0  0  0  0
   -1.4854   -0.3460    0.0000 N   0  0  0  0  0  0  0  0  0  0  0  0
   -2.1943    0.0675    0.0000 C   0  0  0  0  0  0  0  0  0  0  0  0
   -2.1943    0.8862    0.0000 C   0  0  0  0  0  0  0  0  0  0  0  0
   -0.7680   -1.5866    0.0000 N   0  0  0  0  0  0  0  0  0  0  0  0
   -0.0591   -1.1731    0.0000 C   0  0  0  0  0  0  0  0  0  0  0  0
   -1.5276    1.3672    0.0000 C   0  0  0  0  0  0  0  0  0  0  0  0
   -1.7892    2.1521    0.0000 N   0  0  0  0  0  0  0  0  0  0  0  0
   -2.6078    2.1521    0.0000 C   0  0  0  0  0  0  0  0  0  0  0  0
   -2.8611    1.3672    0.0000 C   0  0  0  0  0  0  0  0  0  0  0  0
   -3.1564    2.7683    0.0000 C   0  0  0  0  0  0  0  0  0  0  0  0
   -3.9667    2.5994    0.0000 C   0  0  0  0  0  0  0  0  0  0  0  0
   -4.2199    1.8145    0.0000 C   0  0  0  0  0  0  0  0  0  0  0  0
   -3.6713    1.1985    0.0000 C   0  0  0  0  0  0  0  0  0  0  0  0
    0.6583   -1.5866    0.0000 C   0  0  0  0  0  0  0  0  0  0  0  0
    1.3672   -1.1731    0.0000 C   0  0  0  0  0  0  0  0  0  0  0  0
    1.3672   -0.3460    0.0000 C   0  0  0  0  0  0  0  0  0  0  0  0
    0.6583    0.0675    0.0000 C   0  0  0  0  0  0  0  0  0  0  0  0
   -0.0591   -0.3460    0.0000 C   0  0  0  0  0  0  0  0  0  0  0  0
    0.6583    0.8862    0.0000 N   0  0  0  0  0  0  0  0  0  0  0  0
    0.6583   -2.4053    0.0000 O   0  0  0  0  0  0  0  0  0  0  0  0
   -0.0591   -2.8189    0.0000 C   0  0  0  0  0  0  0  0  0  0  0  0
    2.0845    0.0675    0.0000 N   0  0  0  0  0  0  0  0  0  0  0  0
    2.7935   -0.3460    0.0000 C   0  0  0  0  0  0  0  0  0  0  0  0
    2.0845    0.8862    0.0000 C   0  0  0  0  0  0  0  0  0  0  0  0
    2.7935   -1.1731    0.0000 C   0  0  0  0  0  0  0  0  0  0  0  0
    3.5108   -1.5866    0.0000 N   0  0  0  0  0  0  0  0  0  0  0  0
    3.5108   -2.4053    0.0000 C   0  0  0  0  0  0  0  0  0  0  0  0
   -0.0591    1.2997    0.0000 C   0  0  0  0  0  0  0  0  0  0  0  0
   -0.0591    2.1268    0.0000 C   0  0  0  0  0  0  0  0  0  0  0  0
   -0.7680    0.8862    0.0000 O   0  0  0  0  0  0  0  0  0  0  0  0
    0.6583    2.5320    0.0000 C   0  0  0  0  0  0  0  0  0  0  0  0
    4.2199   -1.1731    0.0000 C   0  0  0  0  0  0  0  0  0  0  0  0
   -1.2997    2.8189    0.0000 C   0  0  0  0  0  0  0  0  0  0  0  0
  1  2  2  0
  1  6  1  0
  2  3  1  0
  3  4  2  0
  4  5  1  0
  4  8  1  0
  5  6  2  0
  6  7  1  0
  7 10  2  0
  7 13  1  0
  8  9  1  0
  9 18  2  0
  9 22  1  0
 10 11  1  0
 11 12  1  0
 11 37  1  0
 12 13  2  0
 12 14  1  0
 13 17  1  0
 14 15  2  0
 15 16  1  0
 16 17  2  0
 18 19  1  0
 18 24  1  0
 19 20  2  0
 20 21  1  0
 20 26  1  0
 21 22  2  0
 21 23  1  0
 23 32  1  0
 24 25  1  0
 26 27  1  0
 26 28  1  0
 27 29  1  0
 29 30  1  0
 30 31  1  0
 30 36  1  0
 32 33  1  0
 32 34  2  0
 33 35  2  3
M  END
$$$$
