
     RDKit          2D

 37 39  0  0  0  0  0  0  0  0999 V2000
    0.3417    2.0557    0.0000 S   0  0  0  0  0  0  0  0  0  0  0  0
    3.2121    0.4024    0.0000 S   0  0  0  0  0  0  0  0  0  0  0  0
    1.0594    0.8145    0.0000 C   0  0  0  0  0  0  0  0  0  0  0  0
    1.0449    1.6388    0.0000 C   0  0  0  0  0  0  0  0  0  0  0  0
    0.3612    0.4169    0.0000 C   0  0  0  0  0  0  0  0  0  0  0  0
   -0.3660    0.8388    0.0000 C   0  0  0  0  0  0  0  0  0  0  0  0
    2.5091    0.8193    0.0000 C   0  0  0  0  0  0  0  0  0  0  0  0
    1.7867    0.3975    0.0000 C   0  0  0  0  0  0  0  0  0  0  0  0
   -2.5187    2.0994    0.0000 N   0  0  0  0  0  0  0  0  0  0  0  0
   -1.7963    1.6775    0.0000 C   0  0  0  0  0  0  0  0  0  0  0  0
   -1.0787    0.4411    0.0000 C   0  0  0  0  0  0  0  0  0  0  0  0
   -0.3660    1.6484    0.0000 C   0  0  0  0  0  0  0  0  0  0  0  0
   -1.1224    2.0751    0.0000 C   0  0  0  0  0  0  0  0  0  0  0  0
   -1.8060    0.8630    0.0000 C   0  0  0  0  0  0  0  0  0  0  0  0
   -0.3950    2.4776    0.0000 O   0  0  0  0  0  0  0  0  0  0  0  0
    3.9297    0.8145    0.0000 O   0  0  0  0  0  0  0  0  0  0  0  0
    1.7673    2.0703    0.0000 C   0  0  0  0  0  0  0  0  0  0  0  0
    0.7685    2.7829    0.0000 O   0  0  0  0  0  0  0  0  0  0  0  0
   -0.0751    1.3430    0.0000 O   0  0  0  0  0  0  0  0  0  0  0  0
    3.6194   -0.3102    0.0000 O   0  0  0  0  0  0  0  0  0  0  0  0
    2.8000   -0.3102    0.0000 O   0  0  0  0  0  0  0  0  0  0  0  0
    0.3321   -0.4315    0.0000 C   0  0  0  0  0  0  0  0  0  0  0  0
    0.3757   -2.0751    0.0000 C   0  0  0  0  0  0  0  0  0  0  0  0
    2.5285    1.6194    0.0000 C   0  0  0  0  0  0  0  0  0  0  0  0
    0.4048   -2.9188    0.0000 N   0  0  0  0  0  0  0  0  0  0  0  0
   -0.3806   -0.8388    0.0000 C   0  0  0  0  0  0  0  0  0  0  0  0
    1.0594   -0.8533    0.0000 C   0  0  0  0  0  0  0  0  0  0  0  0
    1.0594   -1.6824    0.0000 C   0  0  0  0  0  0  0  0  0  0  0  0
   -0.3660   -1.6629    0.0000 C   0  0  0  0  0  0  0  0  0  0  0  0
   -3.2218    1.7115    0.0000 C   0  0  0  0  0  0  0  0  0  0  0  0
   -2.5041    2.9333    0.0000 C   0  0  0  0  0  0  0  0  0  0  0  0
    1.1176   -3.3261    0.0000 C   0  0  0  0  0  0  0  0  0  0  0  0
   -0.2787   -3.3648    0.0000 C   0  0  0  0  0  0  0  0  0  0  0  0
   -3.2073    3.3648    0.0000 C   0  0  0  0  0  0  0  0  0  0  0  0
   -3.9297    2.1430    0.0000 C   0  0  0  0  0  0  0  0  0  0  0  0
    1.8690   -2.9866    0.0000 C   0  0  0  0  0  0  0  0  0  0  0  0
   -1.0109   -2.9915    0.0000 C   0  0  0  0  0  0  0  0  0  0  0  0
  2  7  1  0
  3  4  2  0
  4  1  1  0
  5  3  1  0
  6  5  2  0
  7  8  2  0
  8  3  1  0
  9 10  2  0
 10 13  1  0
 11  6  1  0
 12  6  1  0
 13 12  2  0
 14 11  2  0
 15  1  1  0
 16  2  1  0
 17  4  1  0
 18  1  2  0
 19  1  2  0
 20  2  2  0
 21  2  2  0
 22  5  1  0
 23 29  2  0
 24 17  2  0
 25 23  1  0
 26 22  2  0
 27 22  1  0
 28 27  2  0
 29 26  1  0
 30  9  1  0
 31  9  1  0
 32 25  1  0
 33 25  1  0
 34 31  1  0
 35 30  1  0
 36 32  1  0
 37 33  1  0
 24  7  1  0
 23 28  1  0
 10 14  1  0
M  CHG  1   9   1
M  END
$$$$
