
     RDKit          2D

 20 20  0  0  0  0  0  0  0  0999 V2000
   -0.7028    0.2059    0.0000 C   0  0  0  0  0  0  0  0  0  0  0  0
    0.0096    0.6131    0.0000 N   0  0  0  0  0  0  0  0  0  0  0  0
   -0.6979   -0.6083    0.0000 C   0  0  0  0  0  0  0  0  0  0  0  0
   -1.4251   -1.0155    0.0000 C   0  0  0  0  0  0  0  0  0  0  0  0
   -1.4154    0.6276    0.0000 C   0  0  0  0  0  0  0  0  0  0  0  0
    0.7076    0.2399    0.0000 C   0  0  0  0  0  0  0  0  0  0  0  0
   -2.1377   -0.6228    0.0000 C   0  0  0  0  0  0  0  0  0  0  0  0
    1.4251    0.6471    0.0000 C   0  0  0  0  0  0  0  0  0  0  0  0
   -2.1377    0.2108    0.0000 C   0  0  0  0  0  0  0  0  0  0  0  0
    0.0096    1.4565    0.0000 C   0  0  0  0  0  0  0  0  0  0  0  0
    2.1327    0.2496    0.0000 C   0  0  0  0  0  0  0  0  0  0  0  0
    0.0145   -1.0301    0.0000 I   0  0  0  0  0  0  0  0  0  0  0  0
   -0.7126    1.8492    0.0000 O   0  0  0  0  0  0  0  0  0  0  0  0
    2.1522   -0.5889    0.0000 O   0  0  0  0  0  0  0  0  0  0  0  0
   -1.4542   -1.8686    0.0000 N   0  0  0  0  0  0  0  0  0  0  0  0
   -1.4300    1.4565    0.0000 I   0  0  0  0  0  0  0  0  0  0  0  0
   -2.8502   -1.0446    0.0000 I   0  0  0  0  0  0  0  0  0  0  0  0
    2.8502    0.6616    0.0000 O   0  0  0  0  0  0  0  0  0  0  0  0
    1.4251    1.4565    0.0000 C   0  0  0  0  0  0  0  0  0  0  0  0
    0.7222    1.8686    0.0000 C   0  0  0  0  0  0  0  0  0  0  0  0
  2  1  1  0
  3  1  2  0
  4  3  1  0
  5  1  1  0
  6  2  1  0
  7  9  1  0
  8  6  1  0
  9  5  2  0
 10  2  1  0
 11  8  1  0
 12  3  1  0
 13 10  2  0
 14 11  2  0
 15  4  1  0
 16  5  1  0
 17  7  1  0
 18 11  1  0
 19  8  1  0
 20 10  1  0
  7  4  2  0
M  END
$$$$
