
     RDKit          2D

  8  8  0  0  0  0  0  0  0  0999 V2000
    1.7581    1.1747    0.0000 S   0  0  0  0  0  0  0  0  0  0  0  0
    0.9959    1.4904    0.0000 S   0  0  0  0  0  0  0  0  0  0  0  0
    2.0738    0.4125    0.0000 S   0  0  0  0  0  0  0  0  0  0  0  0
    0.2337    1.1747    0.0000 S   0  0  0  0  0  0  0  0  0  0  0  0
    1.7581   -0.3497    0.0000 S   0  0  0  0  0  0  0  0  0  0  0  0
   -0.0821    0.4125    0.0000 S   0  0  0  0  0  0  0  0  0  0  0  0
    0.9959   -0.6654    0.0000 S   0  0  0  0  0  0  0  0  0  0  0  0
    0.2337   -0.3497    0.0000 S   0  0  0  0  0  0  0  0  0  0  0  0
  2  1  1  0
  3  1  1  0
  4  2  1  0
  5  3  1  0
  6  4  1  0
  7  5  1  0
  8  6  1  0
  8  7  1  0
M  END
$$$$
