
     RDKit          2D

  5  4  0  0  0  0  0  0  0  0999 V2000
    3.6296   -0.8250    0.0000 O   0  0  0  0  0  0  0  0  0  0  0  0
    3.6296    0.0000    0.0000 P   0  0  0  0  0  0  0  0  0  0  0  0
    3.6296    0.8250    0.0000 O   0  0  0  0  0  0  0  0  0  0  0  0
    2.8046    0.0000    0.0000 O   0  0  0  0  0  0  0  0  0  0  0  0
    4.4546    0.0000    0.0000 O   0  0  0  0  0  0  0  0  0  0  0  0
  1  2  2  0
  2  3  1  0
  2  4  1  0
  2  5  1  0
M  CHG  2   3  -1   5  -1
M  END
$$$$
