
     RDKit          2D

 29 31  0  0  0  0  0  0  0  0999 V2000
   -4.8280    1.3976    0.0000 C   0  0  0  0  0  0  0  0  0  0  0  0
    1.3385    2.4181    0.0000 C   0  0  0  0  0  0  0  0  0  0  0  0
    0.6240    2.0056    0.0000 C   0  0  0  0  0  0  0  0  0  0  0  0
    2.0529    2.0056    0.0000 C   0  0  0  0  0  0  0  0  0  0  0  0
   -3.3367    3.8358    0.0000 C   0  0  0  0  0  0  0  0  0  0  0  0
   -4.1251    3.5927    0.0000 C   0  0  0  0  0  0  0  0  0  0  0  0
   -0.0905    2.4181    0.0000 C   0  0  0  0  0  0  0  0  0  0  0  0
   -2.7320    3.2747    0.0000 C   0  0  0  0  0  0  0  0  0  0  0  0
   -4.3087    2.7884    0.0000 C   0  0  0  0  0  0  0  0  0  0  0  0
    2.7674    2.4181    0.0000 C   0  0  0  0  0  0  0  0  0  0  0  0
   -1.2003    0.1355    0.0000 C   0  0  0  0  0  0  0  0  0  0  0  0
   -1.3839    0.9398    0.0000 C   0  0  0  0  0  0  0  0  0  0  0  0
   -0.8050    2.0056    0.0000 C   0  0  0  0  0  0  0  0  0  0  0  0
   -2.5934   -0.1825    0.0000 C   0  0  0  0  0  0  0  0  0  0  0  0
   -1.8051   -0.4257    0.0000 C   0  0  0  0  0  0  0  0  0  0  0  0
   -2.9155    2.4704    0.0000 C   0  0  0  0  0  0  0  0  0  0  0  0
   -2.1722    1.1830    0.0000 C   0  0  0  0  0  0  0  0  0  0  0  0
   -3.7039    2.2272    0.0000 C   0  0  0  0  0  0  0  0  0  0  0  0
   -2.7770    0.6218    0.0000 C   0  0  0  0  0  0  0  0  0  0  0  0
    3.4819    2.0056    0.0000 C   0  0  0  0  0  0  0  0  0  0  0  0
   -2.2339    2.0056    0.0000 C   0  0  0  0  0  0  0  0  0  0  0  0
   -1.6215   -1.2300    0.0000 Cl  0  0  0  0  0  0  0  0  0  0  0  0
   -1.5194    2.4181    0.0000 N   0  0  0  0  0  0  0  0  0  0  0  0
   -4.0053    1.4592    0.0000 N   0  0  0  0  0  0  0  0  0  0  0  0
    4.1963    2.4181    0.0000 O   0  0  0  0  0  0  0  0  0  0  0  0
    3.4819    1.1806    0.0000 O   0  0  0  0  0  0  0  0  0  0  0  0
   -3.6974   -0.0736    0.0000 O   0  0  0  0  0  0  0  0  0  0  0  0
   -4.3163    0.3484    0.0000 O   0  0  0  0  0  0  0  0  0  0  0  0
   -3.5928    0.7448    0.0000 S   0  0  0  0  0  0  0  0  0  0  0  0
  3  2  1  0
  4  2  1  0
  6  5  2  0
  7  3  1  0
  8  5  1  0
  9  6  1  0
 10  4  1  0
 12 11  1  0
 13  7  1  0
 15 11  2  0
 15 14  1  0
 16  8  2  0
 17 12  2  0
 18  9  2  0
 18 16  1  0
 19 14  2  0
 19 17  1  0
 20 10  1  0
 21 16  1  0
 21 17  1  0
 22 15  1  0
 23 13  1  0
 23 21  1  0
 24  1  1  0
 24 18  1  0
 25 20  2  0
 26 20  1  0
 29 19  1  0
 29 24  1  0
 29 27  2  0
 29 28  2  0
M  END
$$$$
