
     RDKit          2D

 14 15  0  0  0  0  0  0  0  0999 V2000
   -0.8138    1.6276    0.0000 F   0  0  0  0  0  0  0  0  0  0  0  0
   -3.0407   -0.3921    0.0000 O   0  0  0  0  0  0  0  0  0  0  0  0
   -0.8508   -1.6276    0.0000 O   0  0  0  0  0  0  0  0  0  0  0  0
    0.5474    0.8064    0.0000 O   0  0  0  0  0  0  0  0  0  0  0  0
   -1.5536   -0.3921    0.0000 N   0  0  0  0  0  0  0  0  0  0  0  0
   -0.1109   -0.3921    0.0000 N   0  0  0  0  0  0  0  0  0  0  0  0
   -0.8508   -0.8064    0.0000 C   0  0  0  0  0  0  0  0  0  0  0  0
   -2.3822   -0.8433    0.0000 C   0  0  0  0  0  0  0  0  0  0  0  0
   -0.8138    0.8433    0.0000 C   0  0  0  0  0  0  0  0  0  0  0  0
   -1.5536    0.4364    0.0000 C   0  0  0  0  0  0  0  0  0  0  0  0
   -0.1109    0.3920    0.0000 C   0  0  0  0  0  0  0  0  0  0  0  0
   -2.6264   -1.6276    0.0000 C   0  0  0  0  0  0  0  0  0  0  0  0
   -3.6991   -0.8433    0.0000 C   0  0  0  0  0  0  0  0  0  0  0  0
   -3.4550   -1.6276    0.0000 C   0  0  0  0  0  0  0  0  0  0  0  0
  1  9  1  0
  2  8  1  0
  2 13  1  0
  3  7  2  0
  4 11  2  0
  5  7  1  0
  5  8  1  0
  5 10  1  0
  6  7  1  0
  6 11  1  0
  8 12  1  0
  9 10  2  0
  9 11  1  0
 12 14  1  0
 13 14  1  0
M  END
$$$$
