
     RDKit          2D

  5  5  0  0  0  0  0  0  0  0999 V2000
   -0.4124   -0.5834    0.0000 C   0  0  0  0  0  0  0  0  0  0  0  0
   -0.9958    0.0000    0.0000 C   0  0  0  0  0  0  0  0  0  0  0  0
   -0.4124    0.5834    0.0000 O   0  0  0  0  0  0  0  0  0  0  0  0
    0.1709    0.0000    0.0000 C   0  0  0  0  0  0  0  0  0  0  0  0
    0.9958    0.0000    0.0000 O   0  0  0  0  0  0  0  0  0  0  0  0
  1  2  1  0
  1  4  1  0
  3  4  1  0
  2  3  1  0
  4  5  2  0
M  END
$$$$
