
     RDKit          2D

 22 22  0  0  0  0  0  0  0  0999 V2000
    4.6431    2.0621    0.0000 C   0  0  0  0  0  0  0  0  0  0  0  0
    3.9297    1.6496    0.0000 C   0  0  0  0  0  0  0  0  0  0  0  0
    3.2148    2.0621    0.0000 C   0  0  0  0  0  0  0  0  0  0  0  0
    3.9297    0.8248    0.0000 C   0  0  0  0  0  0  0  0  0  0  0  0
    3.2148    0.4124    0.0000 C   0  0  0  0  0  0  0  0  0  0  0  0
    2.4999    0.8248    0.0000 C   0  0  0  0  0  0  0  0  0  0  0  0
    1.7865    0.4124    0.0000 C   0  0  0  0  0  0  0  0  0  0  0  0
    1.0716    0.8248    0.0000 C   0  0  0  0  0  0  0  0  0  0  0  0
    0.3581    0.4124    0.0000 C   0  0  0  0  0  0  0  0  0  0  0  0
   -0.3567    0.8248    0.0000 C   0  0  0  0  0  0  0  0  0  0  0  0
   -0.3567    1.6496    0.0000 O   0  0  0  0  0  0  0  0  0  0  0  0
   -1.0715    0.4124    0.0000 N   0  0  0  0  0  0  0  0  0  0  0  0
   -1.7851    0.8248    0.0000 C   0  0  0  0  0  0  0  0  0  0  0  0
   -2.4999    0.4124    0.0000 C   0  0  0  0  0  0  0  0  0  0  0  0
   -3.2134    0.8248    0.0000 C   0  0  0  0  0  0  0  0  0  0  0  0
   -3.9283    0.4124    0.0000 C   0  0  0  0  0  0  0  0  0  0  0  0
   -3.9283   -0.4124    0.0000 C   0  0  0  0  0  0  0  0  0  0  0  0
   -3.2134   -0.8248    0.0000 C   0  0  0  0  0  0  0  0  0  0  0  0
   -2.4999   -0.4124    0.0000 C   0  0  0  0  0  0  0  0  0  0  0  0
   -3.2134   -1.6496    0.0000 O   0  0  0  0  0  0  0  0  0  0  0  0
   -3.9283   -2.0621    0.0000 C   0  0  0  0  0  0  0  0  0  0  0  0
   -4.6431   -0.8248    0.0000 O   0  0  0  0  0  0  0  0  0  0  0  0
  1  2  1  0
  2  3  1  0
  2  4  1  0
  4  5  2  0
  5  6  1  0
  6  7  1  0
  7  8  1  0
  8  9  1  0
  9 10  1  0
 10 11  2  0
 10 12  1  0
 12 13  1  0
 13 14  1  0
 14 15  2  0
 14 19  1  0
 15 16  1  0
 16 17  2  0
 17 18  1  0
 17 22  1  0
 18 19  2  0
 18 20  1  0
 20 21  1  0
M  END
$$$$
