
     RDKit          2D

 68 70  0  0  0  0  0  0  0  0999 V2000
    0.4532    1.8572    0.0000 C   0  0  0  0  0  0  0  0  0  0  0  0
    0.4532    2.6822    0.0000 O   0  0  0  0  0  0  0  0  0  0  0  0
    1.1676    1.4447    0.0000 N   0  0  0  0  0  0  0  0  0  0  0  0
    1.8821    1.8572    0.0000 C   0  0  0  0  0  0  0  0  0  0  0  0
    2.5965    1.4447    0.0000 C   0  0  0  0  0  0  0  0  0  0  0  0
    1.8821    2.6822    0.0000 C   0  0  0  0  0  0  0  0  0  0  0  0
    2.5965    3.0947    0.0000 C   0  0  0  0  0  0  0  0  0  0  0  0
    3.3095    2.6772    0.0000 C   0  0  0  0  0  0  0  0  0  0  0  0
    4.0234    3.0891    0.0000 C   0  0  0  0  0  0  0  0  0  0  0  0
    4.0238    3.9149    0.0000 C   0  0  0  0  0  0  0  0  0  0  0  0
    3.3044    4.3273    0.0000 C   0  0  0  0  0  0  0  0  0  0  0  0
    2.5933    3.9131    0.0000 C   0  0  0  0  0  0  0  0  0  0  0  0
    2.5965    0.6197    0.0000 O   0  0  0  0  0  0  0  0  0  0  0  0
    3.3110    1.8572    0.0000 N   0  0  0  0  0  0  0  0  0  0  0  0
    4.0256    1.4447    0.0000 C   0  0  0  0  0  0  0  0  0  0  0  0
    4.7399    1.8572    0.0000 C   0  0  0  0  0  0  0  0  0  0  0  0
    4.0256    0.6197    0.0000 C   0  0  0  0  0  0  0  0  0  0  0  0
    5.4545    1.4447    0.0000 C   0  0  0  0  0  0  0  0  0  0  0  0
    4.7399    2.6822    0.0000 C   0  0  0  0  0  0  0  0  0  0  0  0
    3.3110    0.2072    0.0000 O   0  0  0  0  0  0  0  0  0  0  0  0
    4.7399    0.2072    0.0000 N   0  0  0  0  0  0  0  0  0  0  0  0
    4.7399   -0.6177    0.0000 C   0  0  0  0  0  0  0  0  0  0  0  0
    5.4545   -1.0302    0.0000 C   0  0  0  0  0  0  0  0  0  0  0  0
    4.0256   -1.0302    0.0000 C   0  0  0  0  0  0  0  0  0  0  0  0
    3.3110   -0.6177    0.0000 O   0  0  0  0  0  0  0  0  0  0  0  0
    4.0256   -1.8552    0.0000 N   0  0  0  0  0  0  0  0  0  0  0  0
    3.3110   -2.2677    0.0000 C   0  0  0  0  0  0  0  0  0  0  0  0
    3.3110   -3.0927    0.0000 C   0  0  0  0  0  0  0  0  0  0  0  0
    2.5965   -1.8552    0.0000 C   0  0  0  0  0  0  0  0  0  0  0  0
    4.0256   -3.5053    0.0000 C   0  0  0  0  0  0  0  0  0  0  0  0
    4.0256   -4.3302    0.0000 O   0  0  0  0  0  0  0  0  0  0  0  0
    4.7399   -3.0927    0.0000 N   0  0  0  0  0  0  0  0  0  0  0  0
    2.5965   -1.0302    0.0000 O   0  0  0  0  0  0  0  0  0  0  0  0
    1.8821   -2.2677    0.0000 N   0  0  0  0  0  0  0  0  0  0  0  0
    1.1676   -1.8552    0.0000 C   0  0  0  0  0  0  0  0  0  0  0  0
    0.4532   -2.2677    0.0000 C   0  0  0  0  0  0  0  0  0  0  0  0
    1.1676   -1.0302    0.0000 C   0  0  0  0  0  0  0  0  0  0  0  0
    0.4532   -0.6177    0.0000 S   0  0  0  0  0  0  0  0  0  0  0  0
    0.4532    0.2072    0.0000 S   0  0  0  0  0  0  0  0  0  0  0  0
   -0.2612    0.6197    0.0000 C   0  0  0  0  0  0  0  0  0  0  0  0
   -0.2612    1.4447    0.0000 C   0  0  0  0  0  0  0  0  0  0  0  0
    0.4532   -3.0927    0.0000 O   0  0  0  0  0  0  0  0  0  0  0  0
   -0.2612   -1.8552    0.0000 N   0  0  0  0  0  0  0  0  0  0  0  0
   -0.3520   -1.0353    0.0000 C   0  0  0  0  0  0  0  0  0  0  0  0
   -1.1591   -0.8638    0.0000 C   0  0  0  0  0  0  0  0  0  0  0  0
   -1.0194   -2.1913    0.0000 C   0  0  0  0  0  0  0  0  0  0  0  0
   -1.1916   -2.9981    0.0000 C   0  0  0  0  0  0  0  0  0  0  0  0
   -1.9764   -3.2524    0.0000 N   0  0  0  0  0  0  0  0  0  0  0  0
   -0.5788   -3.5508    0.0000 O   0  0  0  0  0  0  0  0  0  0  0  0
   -2.5891   -2.6999    0.0000 C   0  0  0  0  0  0  0  0  0  0  0  0
   -3.3738   -2.9543    0.0000 C   0  0  0  0  0  0  0  0  0  0  0  0
   -2.4169   -1.8932    0.0000 C   0  0  0  0  0  0  0  0  0  0  0  0
   -1.6321   -1.6387    0.0000 C   0  0  0  0  0  0  0  0  0  0  0  0
   -3.0296   -1.3407    0.0000 C   0  0  0  0  0  0  0  0  0  0  0  0
   -2.8575   -0.5338    0.0000 C   0  0  0  0  0  0  0  0  0  0  0  0
   -3.9866   -2.4018    0.0000 N   0  0  0  0  0  0  0  0  0  0  0  0
   -3.5460   -3.7612    0.0000 O   0  0  0  0  0  0  0  0  0  0  0  0
   -4.7713   -2.6561    0.0000 C   0  0  0  0  0  0  0  0  0  0  0  0
   -5.3840   -2.1037    0.0000 C   0  0  0  0  0  0  0  0  0  0  0  0
   -6.1688   -2.3579    0.0000 N   0  0  0  0  0  0  0  0  0  0  0  0
   -5.2119   -1.2968    0.0000 O   0  0  0  0  0  0  0  0  0  0  0  0
    4.7378    4.3284    0.0000 O   0  0  0  0  0  0  0  0  0  0  0  0
    5.4528    3.9168    0.0000 C   0  0  0  0  0  0  0  0  0  0  0  0
    6.1667    4.3303    0.0000 C   0  0  0  0  0  0  0  0  0  0  0  0
    5.4545    3.0947    0.0000 C   0  0  0  0  0  0  0  0  0  0  0  0
    6.1688   -0.6177    0.0000 C   0  0  0  0  0  0  0  0  0  0  0  0
    5.4545   -1.8552    0.0000 O   0  0  0  0  0  0  0  0  0  0  0  0
   -3.4702    0.0186    0.0000 N   0  0  0  0  0  0  0  0  0  0  0  0
 15 16  1  0
 29 34  1  0
  7  8  2  0
 35 34  1  0
 15 17  1  0
 35 36  1  6
  4  3  1  0
 35 37  1  0
 16 18  1  6
 37 38  1  0
  8  9  1  0
 38 39  1  0
 16 19  1  0
 39 40  1  0
  1  2  2  0
 40 41  1  0
 17 20  2  0
 36 42  2  0
  9 10  2  0
 36 43  1  0
 43 44  1  0
 17 21  1  0
  4  5  1  0
 22 21  1  1
 44 45  1  0
 45 53  1  0
 53 46  1  0
 46 43  1  0
 10 11  1  0
 46 47  1  6
 22 23  1  0
 47 48  1  0
 41  1  1  0
 47 49  2  0
 22 24  1  0
 50 48  1  0
 11 12  2  0
 50 51  1  0
 24 25  2  0
 50 52  1  6
 12  7  1  0
 24 26  1  0
 52 54  1  0
  4  6  1  6
 54 55  1  0
 27 26  1  0
 51 56  1  0
  5 13  2  0
 51 57  2  0
 27 28  1  1
 56 58  1  0
  1  3  1  0
 58 59  1  0
 27 29  1  0
 59 60  1  0
  5 14  1  0
 59 61  2  0
 28 30  1  0
 10 62  1  0
  6  7  1  0
 62 63  1  0
 30 31  2  0
 63 64  1  0
 15 14  1  1
 19 65  1  0
 30 32  1  0
 23 66  1  1
 23 67  1  0
 29 33  2  0
 55 68  1  0
M  END
$$$$
