
     RDKit          2D

 29 33  0  0  0  0  0  0  0  0999 V2000
   -4.8570    1.3014    0.0000 C   0  0  0  0  0  0  0  0  0  0  0  0
   -4.3806    1.9753    0.0000 C   0  0  0  0  0  0  0  0  0  0  0  0
   -4.3806    0.6390    0.0000 C   0  0  0  0  0  0  0  0  0  0  0  0
   -3.5904    1.7197    0.0000 C   0  0  0  0  0  0  0  0  0  0  0  0
   -3.5904    0.8946    0.0000 C   0  0  0  0  0  0  0  0  0  0  0  0
   -2.8119    1.9753    0.0000 C   0  0  0  0  0  0  0  0  0  0  0  0
   -2.3239    1.3014    0.0000 N   0  0  0  0  0  0  0  0  0  0  0  0
   -2.8119    0.6390    0.0000 C   0  0  0  0  0  0  0  0  0  0  0  0
   -2.3239    2.6377    0.0000 N   0  0  0  0  0  0  0  0  0  0  0  0
   -1.5338    2.3820    0.0000 N   0  0  0  0  0  0  0  0  0  0  0  0
   -1.5338    1.5570    0.0000 C   0  0  0  0  0  0  0  0  0  0  0  0
   -0.8598    1.0806    0.0000 C   0  0  0  0  0  0  0  0  0  0  0  0
   -0.8598    0.2556    0.0000 C   0  0  0  0  0  0  0  0  0  0  0  0
   -0.1511   -0.1627    0.0000 N   0  0  0  0  0  0  0  0  0  0  0  0
    0.5693    0.2556    0.0000 C   0  0  0  0  0  0  0  0  0  0  0  0
   -0.1511   -0.9877    0.0000 C   0  0  0  0  0  0  0  0  0  0  0  0
    1.2782   -0.1627    0.0000 C   0  0  0  0  0  0  0  0  0  0  0  0
    0.5693   -1.3943    0.0000 C   0  0  0  0  0  0  0  0  0  0  0  0
    1.2782   -0.9877    0.0000 N   0  0  0  0  0  0  0  0  0  0  0  0
    1.9985   -1.3943    0.0000 C   0  0  0  0  0  0  0  0  0  0  0  0
    2.7074   -0.9877    0.0000 C   0  0  0  0  0  0  0  0  0  0  0  0
    1.9985   -2.2193    0.0000 C   0  0  0  0  0  0  0  0  0  0  0  0
    3.4278   -1.3943    0.0000 C   0  0  0  0  0  0  0  0  0  0  0  0
    2.7074   -2.6377    0.0000 C   0  0  0  0  0  0  0  0  0  0  0  0
    3.4278   -2.2193    0.0000 C   0  0  0  0  0  0  0  0  0  0  0  0
    4.1366   -0.9877    0.0000 C   0  0  0  0  0  0  0  0  0  0  0  0
    4.5550   -1.6964    0.0000 F   0  0  0  0  0  0  0  0  0  0  0  0
    4.8570   -0.5693    0.0000 F   0  0  0  0  0  0  0  0  0  0  0  0
    3.7299   -0.2672    0.0000 F   0  0  0  0  0  0  0  0  0  0  0  0
  1  2  1  0
  1  3  1  0
  4  2  1  6
  5  3  1  6
  4  6  1  0
  4  5  1  0
  5  8  1  0
  6  9  2  0
  6  7  1  0
  7  8  1  0
  7 11  1  0
  9 10  1  0
 10 11  2  0
 11 12  1  0
 12 13  1  0
 13 14  1  0
 14 15  1  0
 14 16  1  0
 15 17  1  0
 16 18  1  0
 17 19  1  0
 18 19  1  0
 19 20  1  0
 20 21  2  0
 20 22  1  0
 21 23  1  0
 22 24  2  0
 23 25  2  0
 23 26  1  0
 24 25  1  0
 26 27  1  0
 26 28  1  0
 26 29  1  0
M  END
$$$$
