
     RDKit          2D

  9  8  0  0  0  0  0  0  0  0999 V2000
   -0.5045    1.1269    0.0000 C   0  0  0  0  0  0  0  0  0  0  0  0
   -2.1545    1.1269    0.0000 O   0  0  0  0  0  0  0  0  0  0  0  0
   -1.3295    1.9519    0.0000 O   0  0  0  0  0  0  0  0  0  0  0  0
   -1.3295    0.3019    0.0000 O   0  0  0  0  0  0  0  0  0  0  0  0
    0.3204   -0.3019    0.0000 O   0  0  0  0  0  0  0  0  0  0  0  0
    0.6224    0.8250    0.0000 O   0  0  0  0  0  0  0  0  0  0  0  0
   -0.8065    0.0000    0.0000 O   0  0  0  0  0  0  0  0  0  0  0  0
   -1.3295    1.1269    0.0000 P   0  0  0  0  0  0  0  0  0  0  0  0
   -0.0920    0.4125    0.0000 P   0  0  0  0  0  0  0  0  0  0  0  0
  8  1  1  0
  8  2  1  0
  8  3  1  0
  8  4  2  0
  9  1  1  0
  9  5  1  0
  9  6  1  0
  9  7  2  0
M  CHG  4   2  -1   3  -1   5  -1   6  -1
M  END
$$$$
