
     RDKit          2D

  4  3  0  0  0  0  0  0  0  0999 V2000
   14.4006  -11.7000    0.0000 C   0  0  0  0  0  0  0  0  0  0  0  0
   13.6861  -12.1125    0.0000 C   0  0  0  0  0  0  0  0  0  0  0  0
   12.9717  -11.7000    0.0000 O   0  0  0  0  0  0  0  0  0  0  0  0
   13.6861  -12.9375    0.0000 O   0  0  0  0  0  0  0  0  0  0  0  0
  2  1  1  0
  3  2  1  0
  4  2  2  0
M  CHG  1   3  -1
M  END
$$$$
