
     RDKit          2D

 26 26  0  0  0  0  0  0  0  0999 V2000
    3.5723   -4.5375    0.0000 C   0  0  0  0  0  0  0  0  0  0  0  0
    7.1447   -4.9500    0.0000 C   0  0  0  0  0  0  0  0  0  0  0  0
    7.1447   -5.7750    0.0000 C   0  0  0  0  0  0  0  0  0  0  0  0
    0.7144   -6.1875    0.0000 C   0  0  0  0  0  0  0  0  0  0  0  0
    0.0000   -5.7750    0.0000 C   0  0  0  0  0  0  0  0  0  0  0  0
    1.4289   -5.7750    0.0000 C   0  0  0  0  0  0  0  0  0  0  0  0
   -0.7144   -6.1875    0.0000 C   0  0  0  0  0  0  0  0  0  0  0  0
    2.1434   -6.1875    0.0000 C   0  0  0  0  0  0  0  0  0  0  0  0
   -1.4289   -5.7750    0.0000 C   0  0  0  0  0  0  0  0  0  0  0  0
    2.8578   -5.7750    0.0000 C   0  0  0  0  0  0  0  0  0  0  0  0
   -2.1434   -6.1875    0.0000 C   0  0  0  0  0  0  0  0  0  0  0  0
    3.5723   -6.1875    0.0000 C   0  0  0  0  0  0  0  0  0  0  0  0
   -2.8578   -5.7750    0.0000 C   0  0  0  0  0  0  0  0  0  0  0  0
    4.2868   -4.9500    0.0000 C   0  0  0  0  0  0  0  0  0  0  0  0
    4.2868   -5.7750    0.0000 C   0  0  0  0  0  0  0  0  0  0  0  0
    5.0012   -4.5375    0.0000 C   0  0  0  0  0  0  0  0  0  0  0  0
    5.0012   -6.1875    0.0000 C   0  0  0  0  0  0  0  0  0  0  0  0
    5.7157   -4.9500    0.0000 C   0  0  0  0  0  0  0  0  0  0  0  0
    5.7157   -5.7750    0.0000 C   0  0  0  0  0  0  0  0  0  0  0  0
   -3.5723   -6.1875    0.0000 C   0  0  0  0  0  0  0  0  0  0  0  0
    5.0012   -3.7125    0.0000 O   0  0  0  0  0  0  0  0  0  0  0  0
    5.0012   -7.0125    0.0000 O   0  0  0  0  0  0  0  0  0  0  0  0
    6.4302   -4.5375    0.0000 O   0  0  0  0  0  0  0  0  0  0  0  0
    6.4302   -6.1875    0.0000 O   0  0  0  0  0  0  0  0  0  0  0  0
   -4.2868   -5.7750    0.0000 C   0  0  0  0  0  0  0  0  0  0  0  0
   -5.0012   -6.1875    0.0000 O   0  0  0  0  0  0  0  0  0  0  0  0
  5  4  1  0
  6  4  1  0
  7  5  1  0
  8  6  1  0
  9  7  1  0
 10  8  1  0
 11  9  1  0
 12 10  1  0
 13 11  1  0
 14  1  1  0
 15 12  1  0
 15 14  2  0
 16 14  1  0
 17 15  1  0
 18 16  1  0
 19 17  1  0
 19 18  2  0
 21 16  2  0
 22 17  2  0
 23  2  1  0
 23 18  1  0
 24  3  1  0
 24 19  1  0
 20 13  1  0
 20 25  1  0
 25 26  1  0
M  END
$$$$
