
     RDKit          2D

 18 19  0  0  0  0  0  0  0  0999 V2000
   -1.0728    1.6450    0.0000 C   0  0  0  0  0  0  0  0  0  0  0  0
   -1.7873    1.2325    0.0000 C   0  0  0  0  0  0  0  0  0  0  0  0
   -1.7873    0.4075    0.0000 C   0  0  0  0  0  0  0  0  0  0  0  0
   -1.0728   -0.0049    0.0000 N   0  0  0  0  0  0  0  0  0  0  0  0
   -0.3583    0.4075    0.0000 C   0  0  0  0  0  0  0  0  0  0  0  0
   -0.3583    1.2325    0.0000 C   0  0  0  0  0  0  0  0  0  0  0  0
   -0.3584   -1.2424    0.0000 C   0  0  0  0  0  0  0  0  0  0  0  0
    0.3560   -0.8299    0.0000 C   0  0  0  0  0  0  0  0  0  0  0  0
    0.3560   -0.0049    0.0000 N   0  0  0  0  0  0  0  0  0  0  0  0
   -0.3584   -2.0674    0.0000 C   0  0  0  0  0  0  0  0  0  0  0  0
    0.3559   -2.4799    0.0000 C   0  0  0  0  0  0  0  0  0  0  0  0
    1.0704   -2.0675    0.0000 C   0  0  0  0  0  0  0  0  0  0  0  0
    1.0705   -1.2425    0.0000 C   0  0  0  0  0  0  0  0  0  0  0  0
    0.3559    1.6449    0.0000 C   0  0  0  0  0  0  0  0  0  0  0  0
    0.3561    2.4814    0.0000 O   0  0  0  0  0  0  0  0  0  0  0  0
    1.0605    1.2382    0.0000 O   0  0  0  0  0  0  0  0  0  0  0  0
    1.7848   -0.8301    0.0000 C   0  0  0  0  0  0  0  0  0  0  0  0
    1.7873   -2.4814    0.0000 Cl  0  0  0  0  0  0  0  0  0  0  0  0
  1  2  2  0
  2  3  1  0
  3  4  2  0
  4  5  1  0
  5  6  2  0
  1  6  1  0
  7  8  2  0
  8  9  1  0
  5  9  1  0
  7 10  1  0
 10 11  2  0
 11 12  1  0
 12 13  2  0
  8 13  1  0
  6 14  1  0
 14 15  2  0
 14 16  1  0
 13 17  1  0
 12 18  1  0
M  END
$$$$
