
     RDKit          2D

 22 22  0  0  0  0  0  0  0  0999 V2000
   -1.0661   -0.0072    0.0000 C   0  0  0  0  0  0  0  0  0  0  0  0
    0.3618   -0.0314    0.0000 C   0  0  0  0  0  0  0  0  0  0  0  0
   -0.3521   -0.4221    0.0000 C   0  0  0  0  0  0  0  0  0  0  0  0
   -1.0661    0.8129    0.0000 C   0  0  0  0  0  0  0  0  0  0  0  0
    0.3618    0.7839    0.0000 C   0  0  0  0  0  0  0  0  0  0  0  0
   -1.7897   -0.4221    0.0000 C   0  0  0  0  0  0  0  0  0  0  0  0
   -0.3280    1.2181    0.0000 C   0  0  0  0  0  0  0  0  0  0  0  0
    1.0661   -0.4462    0.0000 N   0  0  0  0  0  0  0  0  0  0  0  0
   -3.2225   -0.3932    0.0000 C   0  0  0  0  0  0  0  0  0  0  0  0
    1.7946   -0.0314    0.0000 C   0  0  0  0  0  0  0  0  0  0  0  0
   -2.4893    0.0024    0.0000 C   0  0  0  0  0  0  0  0  0  0  0  0
   -3.9415    0.0169    0.0000 O   0  0  0  0  0  0  0  0  0  0  0  0
   -3.2225   -1.2181    0.0000 O   0  0  0  0  0  0  0  0  0  0  0  0
    1.7752    0.7308    0.0000 O   0  0  0  0  0  0  0  0  0  0  0  0
   -0.3618   -1.2471    0.0000 I   0  0  0  0  0  0  0  0  0  0  0  0
   -1.7657    1.2278    0.0000 I   0  0  0  0  0  0  0  0  0  0  0  0
    1.0903    1.1939    0.0000 I   0  0  0  0  0  0  0  0  0  0  0  0
    2.5086   -0.4511    0.0000 C   0  0  0  0  0  0  0  0  0  0  0  0
   -2.4893    0.8225    0.0000 C   0  0  0  0  0  0  0  0  0  0  0  0
    3.2225   -0.0409    0.0000 C   0  0  0  0  0  0  0  0  0  0  0  0
   -3.2178    1.2471    0.0000 C   0  0  0  0  0  0  0  0  0  0  0  0
    3.9415   -0.4800    0.0000 C   0  0  0  0  0  0  0  0  0  0  0  0
  2  3  1  0
  3  1  2  0
  4  1  1  0
  5  7  1  0
  6  1  1  0
  7  4  2  0
  8  2  1  0
  9 11  1  0
 10  8  1  0
 11  6  1  0
 12  9  1  0
 13  9  2  0
 14 10  2  0
 15  3  1  0
 16  4  1  0
 17  5  1  0
 18 10  1  0
 19 11  1  0
 20 18  1  0
 21 19  1  0
 22 20  1  0
  5  2  2  0
M  END
$$$$
