
     RDKit          2D

 29 31  0  0  1  0  0  0  0  0999 V2000
    6.4302    1.2375    0.0000 C   0  0  0  0  0  0  0  0  0  0  0  0
    7.1447    1.6500    0.0000 C   0  0  0  0  0  0  0  0  0  0  0  0
    7.8591    1.2375    0.0000 C   0  0  0  0  0  0  0  0  0  0  0  0
    8.5736    1.6500    0.0000 C   0  0  0  0  0  0  0  0  0  0  0  0
    9.2881    1.2375    0.0000 C   0  0  0  0  0  0  0  0  0  0  0  0
   10.0025    1.6500    0.0000 C   0  0  0  0  0  0  0  0  0  0  0  0
   11.0190   -2.0945    0.0000 C   0  0  0  0  0  0  0  0  0  0  0  0
   11.8440   -2.0945    0.0000 C   0  0  0  0  0  0  0  0  0  0  0  0
   10.7170    1.2375    0.0000 C   0  0  0  0  0  0  0  0  0  0  0  0
   14.2894    0.0000    0.0000 C   0  0  0  0  0  0  0  0  0  0  0  0
   15.0038    0.4125    0.0000 C   0  0  0  0  0  0  0  0  0  0  0  0
   10.7640   -1.3099    0.0000 C   0  0  0  0  0  0  0  0  0  0  0  0
   12.0989   -1.3099    0.0000 C   0  0  0  0  0  0  0  0  0  0  0  0
   15.7183    2.4750    0.0000 C   0  0  0  0  0  0  0  0  0  0  0  0
   15.0038    2.8875    0.0000 C   0  0  0  0  0  0  0  0  0  0  0  0
   13.5749    1.2375    0.0000 C   0  0  0  0  0  0  0  0  0  0  0  0
   11.4315    0.0000    0.0000 C   0  0  0  0  0  0  0  0  0  0  0  0
   13.5749    0.4125    0.0000 C   0  0  0  0  0  0  0  0  0  0  0  0
   12.1460    0.4125    0.0000 C   0  0  0  0  0  0  0  0  0  0  0  0
   15.0038    1.2375    0.0000 C   0  0  0  0  0  0  0  0  0  0  0  0
   14.2894    1.6500    0.0000 C   0  0  0  0  0  0  0  0  0  0  0  0
   11.4315    1.6500    0.0000 C   0  0  0  0  0  0  0  0  0  0  0  0
   12.8604    0.0000    0.0000 C   0  0  0  0  0  0  0  0  0  0  0  0
   12.1460    1.2375    0.0000 N   0  0  0  0  0  0  0  0  0  0  0  0
   11.4315   -0.8250    0.0000 N   0  0  0  0  0  0  0  0  0  0  0  0
   11.4315    2.4750    0.0000 O   0  0  0  0  0  0  0  0  0  0  0  0
   12.8604   -0.8250    0.0000 O   0  0  0  0  0  0  0  0  0  0  0  0
   15.7183    1.6500    0.0000 O   0  0  0  0  0  0  0  0  0  0  0  0
   14.2894    2.4750    0.0000 O   0  0  0  0  0  0  0  0  0  0  0  0
  2  1  1  0
  3  2  1  0
  4  3  1  0
  5  4  1  0
  6  5  1  0
  8  7  1  0
  9  6  1  0
 11 10  2  0
 12  7  1  0
 13  8  1  0
 15 14  1  0
 18 10  1  0
 18 16  2  0
 19 17  1  1
 20 11  1  0
 21 16  1  0
 21 20  2  0
 22  9  1  0
 23 18  1  0
 23 19  1  0
 19 24  1  0
 24 22  2  3
 25 12  1  0
 25 13  1  0
 25 17  1  0
 22 26  1  0
 23 27  1  1
 28 14  1  0
 28 20  1  0
 29 15  1  0
 29 21  1  0
M  END
$$$$
