
     RDKit          2D

 21 23  0  0  0  0  0  0  0  0999 V2000
    1.5204   -4.0622    0.0000 Cl  0  0  0  0  0  0  0  0  0  0  0  0
    0.0914    0.0627    0.0000 N   0  0  0  0  0  0  0  0  0  0  0  0
    0.0914   -1.5872    0.0000 N   0  0  0  0  0  0  0  0  0  0  0  0
    0.0444    2.6102    0.0000 N   0  0  0  0  0  0  0  0  0  0  0  0
   -0.2104    3.3948    0.0000 N   0  0  0  0  0  0  0  0  0  0  0  0
    0.8059   -0.3496    0.0000 C   0  0  0  0  0  0  0  0  0  0  0  0
   -0.6229   -0.3496    0.0000 C   0  0  0  0  0  0  0  0  0  0  0  0
    0.8059   -1.1747    0.0000 C   0  0  0  0  0  0  0  0  0  0  0  0
   -0.6229   -1.1747    0.0000 C   0  0  0  0  0  0  0  0  0  0  0  0
    0.0914    0.8878    0.0000 C   0  0  0  0  0  0  0  0  0  0  0  0
   -0.6229    1.3002    0.0000 C   0  0  0  0  0  0  0  0  0  0  0  0
    0.0914   -2.4122    0.0000 C   0  0  0  0  0  0  0  0  0  0  0  0
   -0.6229    2.1253    0.0000 C   0  0  0  0  0  0  0  0  0  0  0  0
    0.8059   -2.8247    0.0000 C   0  0  0  0  0  0  0  0  0  0  0  0
   -0.6229   -2.8247    0.0000 C   0  0  0  0  0  0  0  0  0  0  0  0
   -1.2904    2.6102    0.0000 C   0  0  0  0  0  0  0  0  0  0  0  0
   -1.0355    3.3948    0.0000 C   0  0  0  0  0  0  0  0  0  0  0  0
    0.8059   -3.6497    0.0000 C   0  0  0  0  0  0  0  0  0  0  0  0
   -0.6229   -3.6497    0.0000 C   0  0  0  0  0  0  0  0  0  0  0  0
    0.0914   -4.0622    0.0000 C   0  0  0  0  0  0  0  0  0  0  0  0
   -1.5204    4.0622    0.0000 C   0  0  0  0  0  0  0  0  0  0  0  0
  1 18  1  0
  2  6  1  0
  2  7  1  0
  2 10  1  0
  3  8  1  0
  3  9  1  0
  3 12  1  0
  4  5  1  0
  4 13  2  0
  5 17  1  0
  6  8  1  0
  7  9  1  0
 10 11  1  0
 11 13  1  0
 12 14  2  0
 12 15  1  0
 13 16  1  0
 14 18  1  0
 15 19  2  0
 16 17  2  0
 17 21  1  0
 18 20  2  0
 19 20  1  0
M  END
$$$$
