
     RDKit          2D

 22 25  0  0  0  0  0  0  0  0999 V2000
   -1.1020   -0.5458    0.0000 C   0  0  0  0  0  0  0  0  0  0  0  0
    1.0354    0.6916    0.0000 C   0  0  0  0  0  0  0  0  0  0  0  0
    1.0354   -0.1333    0.0000 C   0  0  0  0  0  0  0  0  0  0  0  0
   -0.3896   -0.1291    0.0000 C   0  0  0  0  0  0  0  0  0  0  0  0
   -1.0978   -1.3708    0.0000 C   0  0  0  0  0  0  0  0  0  0  0  0
    0.3228   -0.5333    0.0000 C   0  0  0  0  0  0  0  0  0  0  0  0
    1.8146    0.9541    0.0000 C   0  0  0  0  0  0  0  0  0  0  0  0
    2.5271    1.3666    0.0000 C   0  0  0  0  0  0  0  0  0  0  0  0
    0.3228    1.1041    0.0000 C   0  0  0  0  0  0  0  0  0  0  0  0
   -0.3979    0.6916    0.0000 C   0  0  0  0  0  0  0  0  0  0  0  0
   -1.8146   -0.1209    0.0000 C   0  0  0  0  0  0  0  0  0  0  0  0
    0.3270   -1.3666    0.0000 C   0  0  0  0  0  0  0  0  0  0  0  0
    1.8228   -0.3833    0.0000 C   0  0  0  0  0  0  0  0  0  0  0  0
    3.2396    1.7833    0.0000 C   0  0  0  0  0  0  0  0  0  0  0  0
   -1.8146   -1.7709    0.0000 C   0  0  0  0  0  0  0  0  0  0  0  0
   -0.3896   -1.7791    0.0000 C   0  0  0  0  0  0  0  0  0  0  0  0
    2.3021    0.2833    0.0000 C   0  0  0  0  0  0  0  0  0  0  0  0
   -2.5229   -1.3708    0.0000 C   0  0  0  0  0  0  0  0  0  0  0  0
   -3.2396   -1.7833    0.0000 O   0  0  0  0  0  0  0  0  0  0  0  0
   -2.5229   -0.5458    0.0000 C   0  0  0  0  0  0  0  0  0  0  0  0
    1.6021    1.7541    0.0000 O   0  0  0  0  0  0  0  0  0  0  0  0
    1.0271    1.5166    0.0000 C   0  0  0  0  0  0  0  0  0  0  0  0
  2  9  1  0
  3  6  1  0
  4  1  1  0
  5  1  2  0
  6  4  1  0
  7  2  1  0
  7  8  1  0
  9 10  1  0
  4 10  1  1
 11  1  1  0
 12 16  1  0
  3 13  1  1
 14  8  3  0
 15  5  1  0
 16  5  1  0
 17 13  1  0
 18 20  1  0
 19 18  2  0
 20 11  1  0
  7 21  1  1
  2 22  1  1
 18 15  1  0
  6 12  1  6
  3  2  1  0
 17  7  1  0
M  END
$$$$
