
     RDKit          2D

 26 26  0  0  0  0  0  0  0  0999 V2000
   -5.4423    2.1498    0.0000 C   0  0  0  0  0  0  0  0  0  0  0  0
   -4.7279    1.7373    0.0000 C   0  0  0  0  0  0  0  0  0  0  0  0
   -4.7279    0.9123    0.0000 N   0  0  0  0  0  0  0  0  0  0  0  0
   -5.4423    0.4998    0.0000 C   0  0  0  0  0  0  0  0  0  0  0  0
   -6.1568    0.9123    0.0000 C   0  0  0  0  0  0  0  0  0  0  0  0
   -6.1568    1.7373    0.0000 C   0  0  0  0  0  0  0  0  0  0  0  0
   -4.0134    0.4998    0.0000 C   0  0  0  0  0  0  0  0  0  0  0  0
   -3.2989    0.9123    0.0000 C   0  0  0  0  0  0  0  0  0  0  0  0
   -2.5845    0.4998    0.0000 N   0  0  0  0  0  0  0  0  0  0  0  0
   -1.8700    0.9123    0.0000 C   0  0  0  0  0  0  0  0  0  0  0  0
   -1.1555    0.4998    0.0000 C   0  0  0  0  0  0  0  0  0  0  0  0
   -0.4410    0.9123    0.0000 O   0  0  0  0  0  0  0  0  0  0  0  0
    0.2733    0.4998    0.0000 C   0  0  0  0  0  0  0  0  0  0  0  0
    0.9878    0.9123    0.0000 C   0  0  0  0  0  0  0  0  0  0  0  0
    1.7023    0.4998    0.0000 C   0  0  0  0  0  0  0  0  0  0  0  0
    2.4167    0.9123    0.0000 C   0  0  0  0  0  0  0  0  0  0  0  0
    3.1312    0.4998    0.0000 C   0  0  0  0  0  0  0  0  0  0  0  0
    3.8457    0.9123    0.0000 C   0  0  0  0  0  0  0  0  0  0  0  0
    4.5602    0.4998    0.0000 C   0  0  0  0  0  0  0  0  0  0  0  0
    5.2746    0.9123    0.0000 C   0  0  0  0  0  0  0  0  0  0  0  0
    5.9891    0.4998    0.0000 C   0  0  0  0  0  0  0  0  0  0  0  0
    6.7036    0.9123    0.0000 C   0  0  0  0  0  0  0  0  0  0  0  0
    7.4180    0.4998    0.0000 C   0  0  0  0  0  0  0  0  0  0  0  0
    8.1325    0.9123    0.0000 C   0  0  0  0  0  0  0  0  0  0  0  0
   -3.2989    1.7373    0.0000 O   0  0  0  0  0  0  0  0  0  0  0  0
    0.2733   -0.3251    0.0000 O   0  0  0  0  0  0  0  0  0  0  0  0
 12 13  1  0
  6  1  2  0
 13 14  1  0
  2  3  2  0
 14 15  1  0
  3  7  1  0
 15 16  1  0
 16 17  1  0
  7  8  1  0
 17 18  1  0
  3  4  1  0
 18 19  1  0
  8  9  1  0
 19 20  1  0
  1  2  1  0
 20 21  1  0
  9 10  1  0
 21 22  1  0
  4  5  2  0
 22 23  1  0
 10 11  1  0
 23 24  1  0
  8 25  2  0
 11 12  1  0
 13 26  2  0
  5  6  1  0
M  CHG  1   3   1
M  END
$$$$
