
     RDKit          2D

 23 23  0  0  0  0  0  0  0  0999 V2000
   -3.3258   -2.5535    0.0000 Br  0  0  0  0  0  0  0  0  0  0  0  0
   -0.4678   -0.0783    0.0000 O   0  0  0  0  0  0  0  0  0  0  0  0
    1.6757    1.1591    0.0000 O   0  0  0  0  0  0  0  0  0  0  0  0
   -1.1822    3.6342    0.0000 O   0  0  0  0  0  0  0  0  0  0  0  0
    0.9612    2.3967    0.0000 O   0  0  0  0  0  0  0  0  0  0  0  0
   -1.8967    2.3967    0.0000 O   0  0  0  0  0  0  0  0  0  0  0  0
   -0.4678    1.5717    0.0000 N   0  0  0  0  0  0  0  0  0  0  0  0
   -1.8967   -0.0783    0.0000 N   0  0  0  0  0  0  0  0  0  0  0  0
   -1.8967   -0.9034    0.0000 C   0  0  0  0  0  0  0  0  0  0  0  0
   -1.1822    1.1591    0.0000 C   0  0  0  0  0  0  0  0  0  0  0  0
   -2.6112   -1.3159    0.0000 C   0  0  0  0  0  0  0  0  0  0  0  0
   -1.1822   -1.3159    0.0000 C   0  0  0  0  0  0  0  0  0  0  0  0
   -1.1822    0.3341    0.0000 C   0  0  0  0  0  0  0  0  0  0  0  0
   -1.8967   -2.5535    0.0000 C   0  0  0  0  0  0  0  0  0  0  0  0
   -2.6112   -2.1410    0.0000 C   0  0  0  0  0  0  0  0  0  0  0  0
   -1.1822   -2.1410    0.0000 C   0  0  0  0  0  0  0  0  0  0  0  0
   -0.4678    2.3967    0.0000 C   0  0  0  0  0  0  0  0  0  0  0  0
    0.2467    1.1591    0.0000 C   0  0  0  0  0  0  0  0  0  0  0  0
   -3.3258   -0.9034    0.0000 C   0  0  0  0  0  0  0  0  0  0  0  0
   -0.4678   -0.9034    0.0000 C   0  0  0  0  0  0  0  0  0  0  0  0
   -1.8967   -3.3785    0.0000 C   0  0  0  0  0  0  0  0  0  0  0  0
    0.9612    1.5717    0.0000 C   0  0  0  0  0  0  0  0  0  0  0  0
   -1.1822    2.8092    0.0000 C   0  0  0  0  0  0  0  0  0  0  0  0
  1 15  1  0
  2 13  2  0
  3 22  1  0
  4 23  1  0
  5 22  2  0
  6 23  2  0
  7 10  1  0
  7 17  1  0
  7 18  1  0
  8  9  1  0
  8 13  1  0
  9 11  2  0
  9 12  1  0
 10 13  1  0
 11 15  1  0
 11 19  1  0
 12 16  2  0
 12 20  1  0
 14 15  2  0
 14 16  1  0
 14 21  1  0
 17 23  1  0
 18 22  1  0
M  END
$$$$
