
     RDKit          2D

  5  4  0  0  0  0  0  0  0  0999 V2000
    3.6536   -3.3000    0.0000 O   0  0  0  0  0  0  0  0  0  0  0  0
    3.6536   -2.4750    0.0000 S   0  0  0  0  0  0  0  0  0  0  0  0
    3.6536   -1.6500    0.0000 O   0  0  0  0  0  0  0  0  0  0  0  0
    4.4786   -2.4750    0.0000 O   0  0  0  0  0  0  0  0  0  0  0  0
    2.8286   -2.4750    0.0000 O   0  0  0  0  0  0  0  0  0  0  0  0
  1  2  1  0
  2  3  1  0
  2  4  2  0
  2  5  2  0
M  CHG  2   1  -1   3  -1
M  END
$$$$
