
     RDKit          2D

 54 58  0  0  1  0  0  0  0  0999 V2000
   11.4224   -5.5160    0.0000 C   0  0  0  0  0  0  0  0  0  0  0  0
   11.4224   -6.3410    0.0000 C   0  0  0  0  0  0  0  0  0  0  0  0
   12.1236   -5.1035    0.0000 C   0  0  0  0  0  0  0  0  0  0  0  0
   10.7211   -5.1035    0.0000 N   0  0  0  0  0  0  0  0  0  0  0  0
   12.8661   -5.5160    0.0000 C   0  0  0  0  0  0  0  0  0  0  0  0
   10.0199   -5.5160    0.0000 C   0  0  0  0  0  0  0  0  0  0  0  0
   13.5674   -5.1035    0.0000 C   0  0  0  0  0  0  0  0  0  0  0  0
    9.2774   -5.1035    0.0000 C   0  0  0  0  0  0  0  0  0  0  0  0
   10.0199   -6.3410    0.0000 O   0  0  0  0  0  0  0  0  0  0  0  0
   13.5674   -4.2785    0.0000 C   0  0  0  0  0  0  0  0  0  0  0  0
   14.2687   -5.4748    0.0000 N   0  0  0  0  0  0  0  0  0  0  0  0
    8.5761   -5.5160    0.0000 N   0  0  0  0  0  0  0  0  0  0  0  0
   12.8248   -3.8660    0.0000 C   0  0  0  0  0  0  0  0  0  0  0  0
   14.9699   -5.1035    0.0000 C   0  0  0  0  0  0  0  0  0  0  0  0
    7.8749   -5.1035    0.0000 C   0  0  0  0  0  0  0  0  0  0  0  0
   12.8248   -3.0410    0.0000 C   0  0  0  0  0  0  0  0  0  0  0  0
   12.1236   -4.2785    0.0000 C   0  0  0  0  0  0  0  0  0  0  0  0
   15.7124   -5.4748    0.0000 O   0  0  0  0  0  0  0  0  0  0  0  0
   14.9699   -4.2785    0.0000 O   0  0  0  0  0  0  0  0  0  0  0  0
    7.1736   -5.5160    0.0000 N   0  0  0  0  0  0  0  0  0  0  0  0
    7.8749   -4.2785    0.0000 O   0  0  0  0  0  0  0  0  0  0  0  0
   12.1236   -2.6285    0.0000 C   0  0  0  0  0  0  0  0  0  0  0  0
   11.4224   -3.8660    0.0000 C   0  0  0  0  0  0  0  0  0  0  0  0
   16.4137   -5.0622    0.0000 C   0  0  0  0  0  0  0  0  0  0  0  0
    6.4311   -5.1035    0.0000 C   0  0  0  0  0  0  0  0  0  0  0  0
    7.1736   -6.3410    0.0000 C   0  0  0  0  0  0  0  0  0  0  0  0
   11.4224   -3.0410    0.0000 C   0  0  0  0  0  0  0  0  0  0  0  0
   17.1149   -5.4748    0.0000 C   0  0  0  0  0  0  0  0  0  0  0  0
    5.7298   -5.5160    0.0000 C   0  0  0  0  0  0  0  0  0  0  0  0
   17.1149   -6.2997    0.0000 C   0  0  0  0  0  0  0  0  0  0  0  0
   17.8987   -5.2272    0.0000 S   0  0  0  0  0  0  0  0  0  0  0  0
    4.9461   -5.3098    0.0000 N   0  0  0  0  0  0  0  0  0  0  0  0
    5.7298   -6.3410    0.0000 C   0  0  0  0  0  0  0  0  0  0  0  0
   17.8987   -6.5473    0.0000 N   0  0  0  0  0  0  0  0  0  0  0  0
   18.3937   -5.8873    0.0000 C   0  0  0  0  0  0  0  0  0  0  0  0
    4.4923   -6.0110    0.0000 C   0  0  0  0  0  0  0  0  0  0  0  0
    4.9873   -6.6298    0.0000 S   0  0  0  0  0  0  0  0  0  0  0  0
    3.6673   -6.0110    0.0000 C   0  0  0  0  0  0  0  0  0  0  0  0
    3.2136   -5.3098    0.0000 C   0  0  0  0  0  0  0  0  0  0  0  0
    3.2961   -6.7123    0.0000 C   0  0  0  0  0  0  0  0  0  0  0  0
   12.1369   -6.7535    0.0000 C   0  0  0  0  0  0  0  0  0  0  0  0
   12.1369   -7.5784    0.0000 C   0  0  0  0  0  0  0  0  0  0  0  0
   12.8514   -7.9909    0.0000 C   0  0  0  0  0  0  0  0  0  0  0  0
   13.5659   -7.5784    0.0000 C   0  0  0  0  0  0  0  0  0  0  0  0
   13.5659   -6.7535    0.0000 C   0  0  0  0  0  0  0  0  0  0  0  0
   12.8514   -6.3410    0.0000 C   0  0  0  0  0  0  0  0  0  0  0  0
    9.2673   -4.2786    0.0000 C   0  0  0  0  0  0  0  0  0  0  0  0
    8.5555   -3.8792    0.0000 C   0  0  0  0  0  0  0  0  0  0  0  0
    8.5555   -3.0541    0.0000 N   0  0  0  0  0  0  0  0  0  0  0  0
    9.2598   -2.6472    0.0000 C   0  0  0  0  0  0  0  0  0  0  0  0
    9.2594   -1.8221    0.0000 C   0  0  0  0  0  0  0  0  0  0  0  0
    8.5449   -1.4099    0.0000 O   0  0  0  0  0  0  0  0  0  0  0  0
    7.8405   -1.8168    0.0000 C   0  0  0  0  0  0  0  0  0  0  0  0
    7.8408   -2.6419    0.0000 C   0  0  0  0  0  0  0  0  0  0  0  0
  1  2  1  6
  1  3  1  0
  1  4  1  0
  3  5  1  0
  4  6  1  0
  7  5  1  6
  6  8  1  0
  6  9  2  0
  7 10  1  0
  7 11  1  0
  8 12  1  0
 10 13  1  0
 11 14  1  0
 12 15  1  0
 13 16  2  0
 13 17  1  0
 14 18  1  0
 14 19  2  0
 15 20  1  0
 15 21  2  0
 16 22  1  0
 17 23  2  0
 18 24  1  0
 20 25  1  0
 20 26  1  0
 22 27  2  0
 24 28  1  0
 25 29  1  0
 28 30  2  0
 28 31  1  0
 29 32  1  0
 29 33  2  0
 30 34  1  0
 31 35  1  0
 32 36  2  0
 33 37  1  0
 36 38  1  0
 38 39  1  0
 38 40  1  0
 23 27  1  0
 34 35  2  0
 36 37  1  0
  2 41  1  0
 41 42  2  0
 42 43  1  0
 43 44  2  0
 44 45  1  0
 45 46  2  0
 41 46  1  0
  8 47  1  1
 47 48  1  0
 48 49  1  0
 49 50  1  0
 50 51  1  0
 51 52  1  0
 52 53  1  0
 53 54  1  0
 49 54  1  0
M  END
$$$$
