
     RDKit          2D

 45 49  0  0  0  0  0  0  0  0999 V2000
   12.1460   13.6125    0.0000 C   0  0  0  0  0  0  0  0  0  0  0  0
   10.7171   11.1375    0.0000 C   0  0  0  0  0  0  0  0  0  0  0  0
   10.0026   15.6750    0.0000 C   0  0  0  0  0  0  0  0  0  0  0  0
    5.7158    5.7750    0.0000 C   0  0  0  0  0  0  0  0  0  0  0  0
    3.5724    9.4875    0.0000 C   0  0  0  0  0  0  0  0  0  0  0  0
    6.4302    6.1875    0.0000 C   0  0  0  0  0  0  0  0  0  0  0  0
    5.0013    6.1875    0.0000 C   0  0  0  0  0  0  0  0  0  0  0  0
    3.5724    8.6625    0.0000 C   0  0  0  0  0  0  0  0  0  0  0  0
    4.2868    9.9000    0.0000 C   0  0  0  0  0  0  0  0  0  0  0  0
    7.8592   13.6125    0.0000 C   0  0  0  0  0  0  0  0  0  0  0  0
    6.4302    7.0125    0.0000 C   0  0  0  0  0  0  0  0  0  0  0  0
    5.0013    7.0125    0.0000 C   0  0  0  0  0  0  0  0  0  0  0  0
    4.2868    8.2500    0.0000 C   0  0  0  0  0  0  0  0  0  0  0  0
    5.0013    9.4875    0.0000 C   0  0  0  0  0  0  0  0  0  0  0  0
    8.5737   13.2000    0.0000 C   0  0  0  0  0  0  0  0  0  0  0  0
    7.8592   14.4375    0.0000 C   0  0  0  0  0  0  0  0  0  0  0  0
    7.1447    9.9000    0.0000 C   0  0  0  0  0  0  0  0  0  0  0  0
    7.8592    8.6625    0.0000 C   0  0  0  0  0  0  0  0  0  0  0  0
    6.4302    9.4875    0.0000 C   0  0  0  0  0  0  0  0  0  0  0  0
    7.1447    8.2500    0.0000 C   0  0  0  0  0  0  0  0  0  0  0  0
    8.5737    9.9000    0.0000 C   0  0  0  0  0  0  0  0  0  0  0  0
    8.5737   10.7250    0.0000 C   0  0  0  0  0  0  0  0  0  0  0  0
    9.2881   14.4375    0.0000 C   0  0  0  0  0  0  0  0  0  0  0  0
   11.4315   13.2000    0.0000 C   0  0  0  0  0  0  0  0  0  0  0  0
   10.7171   11.9625    0.0000 C   0  0  0  0  0  0  0  0  0  0  0  0
    5.7158    7.4250    0.0000 C   0  0  0  0  0  0  0  0  0  0  0  0
    5.0013    8.6625    0.0000 C   0  0  0  0  0  0  0  0  0  0  0  0
    9.2881   13.6125    0.0000 C   0  0  0  0  0  0  0  0  0  0  0  0
    8.5737   14.8500    0.0000 C   0  0  0  0  0  0  0  0  0  0  0  0
   10.7171   13.6125    0.0000 C   0  0  0  0  0  0  0  0  0  0  0  0
   10.0026   12.3750    0.0000 C   0  0  0  0  0  0  0  0  0  0  0  0
   10.0026   13.2000    0.0000 C   0  0  0  0  0  0  0  0  0  0  0  0
    5.7158    8.2500    0.0000 C   0  0  0  0  0  0  0  0  0  0  0  0
   10.7171   14.4375    0.0000 C   0  0  0  0  0  0  0  0  0  0  0  0
    9.2881   11.9625    0.0000 C   0  0  0  0  0  0  0  0  0  0  0  0
   11.4315   12.3750    0.0000 N   0  0  0  0  0  0  0  0  0  0  0  0
    7.8592    9.4875    0.0000 N   0  0  0  0  0  0  0  0  0  0  0  0
    6.4302    8.6625    0.0000 N   0  0  0  0  0  0  0  0  0  0  0  0
    8.5737   15.6750    0.0000 N   0  0  0  0  0  0  0  0  0  0  0  0
   11.4315   14.8500    0.0000 O   0  0  0  0  0  0  0  0  0  0  0  0
    8.5737   12.3750    0.0000 O   0  0  0  0  0  0  0  0  0  0  0  0
    9.2881   16.0875    0.0000 O   0  0  0  0  0  0  0  0  0  0  0  0
    7.8592   16.0875    0.0000 O   0  0  0  0  0  0  0  0  0  0  0  0
   10.0026   14.8500    0.0000 O   0  0  0  0  0  0  0  0  0  0  0  0
    9.2881   11.1375    0.0000 O   0  0  0  0  0  0  0  0  0  0  0  0
  6  4  2  0
  7  4  1  0
  8  5  2  0
  9  5  1  0
 11  6  1  0
 12  7  2  0
 13  8  1  0
 14  9  2  0
 15 10  2  0
 16 10  1  0
 19 17  1  0
 20 18  1  0
 22 21  1  0
 24  1  1  0
 25  2  1  0
 26 11  2  0
 26 12  1  0
 27 13  2  0
 27 14  1  0
 28 15  1  0
 28 23  2  0
 29 16  2  0
 29 23  1  0
 30 24  2  0
 31 25  2  0
 32 28  1  0
 32 30  1  0
 32 31  1  0
 33 26  1  0
 33 27  1  0
 34 30  1  0
 35 31  1  0
 36 24  1  0
 36 25  1  0
 37 17  1  0
 37 18  1  0
 37 21  1  0
 38 19  1  0
 38 20  1  0
 38 33  1  0
 39 29  1  0
 40 34  2  0
 41 35  2  0
 42 39  1  0
 43 39  2  0
 44  3  1  0
 44 34  1  0
 45 22  1  0
 45 35  1  0
M  CHG  2  39   1  42  -1
M  END
$$$$
