
     RDKit          2D

 23 24  0  0  0  0  0  0  0  0999 V2000
    9.4367   -4.9600    0.0000 O   0  0  0  0  0  0  0  0  0  0  0  0
    8.6297   -4.7884    0.0000 C   0  0  0  0  0  0  0  0  0  0  0  0
    8.3748   -4.0038    0.0000 C   0  0  0  0  0  0  0  0  0  0  0  0
    7.5678   -3.8323    0.0000 O   0  0  0  0  0  0  0  0  0  0  0  0
    7.3128   -3.0477    0.0000 C   0  0  0  0  0  0  0  0  0  0  0  0
    6.5059   -2.8761    0.0000 O   0  0  0  0  0  0  0  0  0  0  0  0
    5.9538   -3.4892    0.0000 C   0  0  0  0  0  0  0  0  0  0  0  0
    5.4018   -2.8761    0.0000 C   0  0  0  0  0  0  0  0  0  0  0  0
    4.5948   -3.0477    0.0000 O   0  0  0  0  0  0  0  0  0  0  0  0
    6.6213   -3.9742    0.0000 O   0  0  0  0  0  0  0  0  0  0  0  0
    6.3663   -4.7588    0.0000 C   0  0  0  0  0  0  0  0  0  0  0  0
    6.8513   -5.4262    0.0000 C   0  0  0  0  0  0  0  0  0  0  0  0
    7.6717   -5.3400    0.0000 O   0  0  0  0  0  0  0  0  0  0  0  0
    5.5413   -4.7588    0.0000 C   0  0  0  0  0  0  0  0  0  0  0  0
    5.0564   -5.4262    0.0000 O   0  0  0  0  0  0  0  0  0  0  0  0
    5.2864   -3.9742    0.0000 C   0  0  0  0  0  0  0  0  0  0  0  0
    4.5018   -3.7192    0.0000 O   0  0  0  0  0  0  0  0  0  0  0  0
    7.8649   -2.4346    0.0000 C   0  0  0  0  0  0  0  0  0  0  0  0
    7.6099   -1.6500    0.0000 O   0  0  0  0  0  0  0  0  0  0  0  0
    8.6719   -2.6061    0.0000 C   0  0  0  0  0  0  0  0  0  0  0  0
    9.2239   -1.9930    0.0000 O   0  0  0  0  0  0  0  0  0  0  0  0
    8.9268   -3.3907    0.0000 C   0  0  0  0  0  0  0  0  0  0  0  0
    9.7338   -3.5622    0.0000 O   0  0  0  0  0  0  0  0  0  0  0  0
  1  2  1  0
  3  2  1  1
  3  4  1  0
  4  5  1  0
  5  6  1  6
  7  6  1  0
  7  8  1  1
  8  9  1  0
  7 10  1  0
 10 11  1  0
 11 12  1  6
 12 13  1  0
 11 14  1  0
 14 15  1  1
 14 16  1  0
  7 16  1  0
 16 17  1  6
  5 18  1  0
 18 19  1  6
 18 20  1  0
 20 21  1  1
 20 22  1  0
  3 22  1  0
 22 23  1  6
M  END
$$$$
