
     RDKit          2D

  4  3  0  0  0  0  0  0  0  0999 V2000
   -0.9484    0.2471    0.0000 O   0  0  0  0  0  0  0  0  0  0  0  0
   -0.9484    1.0721    0.0000 C   0  0  0  0  0  0  0  0  0  0  0  0
   -0.2884    1.4847    0.0000 O   0  0  0  0  0  0  0  0  0  0  0  0
   -1.6909    1.4847    0.0000 O   0  0  0  0  0  0  0  0  0  0  0  0
  1  2  1  0
  2  3  1  0
  2  4  2  0
M  CHG  2   1  -1   3  -1
M  END
$$$$
