 
     RDKit          2D

 34 37  0  0  1  0  0  0  0  0999 V2000
   31.7410  -19.3874    0.0000 C   0  0  0  0  0  0  0  0  0  0  0  0
   31.7410  -18.5624    0.0000 C   0  0  0  0  0  0  0  0  0  0  0  0
   31.0397  -18.1499    0.0000 C   0  0  0  0  0  0  0  0  0  0  0  0
   30.2972  -18.5624    0.0000 C   0  0  0  0  0  0  0  0  0  0  0  0
   30.2972  -19.3874    0.0000 C   0  0  0  0  0  0  0  0  0  0  0  0
   31.0397  -19.8000    0.0000 C   0  0  0  0  0  0  0  0  0  0  0  0
   29.4721  -18.5624    0.0000 C   0  0  0  0  0  0  0  0  0  0  0  0
   29.4721  -19.3874    0.0000 C   0  0  0  0  0  0  0  0  0  0  0  0
   32.4423  -19.8000    0.0000 O   0  0  0  0  0  0  0  0  0  0  0  0
   32.4423  -18.1499    0.0000 O   0  0  0  0  0  0  0  0  0  0  0  0
   28.8121  -18.0674    0.0000 C   0  0  0  0  0  0  0  0  0  0  0  0
   28.1109  -18.4799    0.0000 N   0  0  0  0  0  0  0  0  0  0  0  0
   27.4096  -18.0674    0.0000 C   0  0  0  0  0  0  0  0  0  0  0  0
   28.1109  -19.3049    0.0000 C   0  0  0  0  0  0  0  0  0  0  0  0
   33.1436  -18.5624    0.0000 C   0  0  0  0  0  0  0  0  0  0  0  0
   33.1436  -19.3874    0.0000 C   0  0  0  0  0  0  0  0  0  0  0  0
   26.7083  -18.4799    0.0000 C   0  0  0  0  0  0  0  0  0  0  0  0
   26.0070  -18.0674    0.0000 C   0  0  0  0  0  0  0  0  0  0  0  0
   25.3057  -18.4799    0.0000 N   0  0  0  0  0  0  0  0  0  0  0  0
   23.4907  -18.0674    0.0000 C   0  0  0  0  0  0  0  0  0  0  0  0
   24.1507  -17.5311    0.0000 C   0  0  0  0  0  0  0  0  0  0  0  0
   24.9345  -17.7374    0.0000 C   0  0  0  0  0  0  0  0  0  0  0  0
   23.4907  -18.8925    0.0000 C   0  0  0  0  0  0  0  0  0  0  0  0
   24.9345  -19.2224    0.0000 C   0  0  0  0  0  0  0  0  0  0  0  0
   24.1507  -19.3874    0.0000 C   0  0  0  0  0  0  0  0  0  0  0  0
   25.4547  -17.0970    0.0000 O   0  0  0  0  0  0  0  0  0  0  0  0
   22.7762  -17.6549    0.0000 C   0  0  0  0  0  0  0  0  0  0  0  0
   22.0617  -18.0674    0.0000 C   0  0  0  0  0  0  0  0  0  0  0  0
   22.0617  -18.8925    0.0000 C   0  0  0  0  0  0  0  0  0  0  0  0
   22.7762  -19.3049    0.0000 C   0  0  0  0  0  0  0  0  0  0  0  0
   21.3362  -17.6484    0.0000 O   0  0  0  0  0  0  0  0  0  0  0  0
   20.6259  -18.0584    0.0000 C   0  0  0  0  0  0  0  0  0  0  0  0
   21.3362  -19.3115    0.0000 O   0  0  0  0  0  0  0  0  0  0  0  0
   20.6259  -18.9015    0.0000 C   0  0  0  0  0  0  0  0  0  0  0  0
  1  2  2  0
  2  3  1  0
  3  4  2  0
  4  5  1  0
  5  6  2  0
  1  6  1  0
  4  7  1  0
  7  8  1  0
  5  8  1  0
  1  9  1  0
  2 10  1  0
  7 11  1  6
 11 12  1  0
 12 13  1  0
 12 14  1  0
 10 15  1  0
  9 16  1  0
 13 17  1  0
 17 18  1  0
 18 19  1  0
 22 19  1  0
 20 23  2  0
 19 24  1  0
 21 22  1  0
 23 25  1  0
 20 21  1  0
 24 25  1  0
 22 26  2  0
 20 27  1  0
 27 28  2  0
 28 29  1  0
 29 30  2  0
 23 30  1  0
 28 31  1  0
 31 32  1  0
 29 33  1  0
 33 34  1  0
M  END
$$$$
