
     RDKit          2D

 31 34  0  0  0  0  0  0  0  0999 V2000
   12.8066    1.8414    0.0000 O   0  0  0  0  0  0  0  0  0  0  0  0
   11.3399    1.8500    0.0000 O   0  0  0  0  0  0  0  0  0  0  0  0
   10.6206    3.9551    0.0000 O   0  0  0  0  0  0  0  0  0  0  0  0
   15.7440    4.1838    0.0000 O   0  0  0  0  0  0  0  0  0  0  0  0
   15.7440    2.8559    0.0000 O   0  0  0  0  0  0  0  0  0  0  0  0
   11.3399    5.1898    0.0000 O   0  0  0  0  0  0  0  0  0  0  0  0
   11.3968    6.8648    0.0000 O   0  0  0  0  0  0  0  0  0  0  0  0
   14.2545    6.8318    0.0000 O   0  0  0  0  0  0  0  0  0  0  0  0
   12.8352    7.6732    0.0000 O   0  0  0  0  0  0  0  0  0  0  0  0
   12.0496    3.0903    0.0000 C   0  0  0  0  0  0  0  0  0  0  0  0
   12.0496    3.9496    0.0000 C   0  0  0  0  0  0  0  0  0  0  0  0
   12.7970    4.3734    0.0000 C   0  0  0  0  0  0  0  0  0  0  0  0
   12.7970    2.6663    0.0000 C   0  0  0  0  0  0  0  0  0  0  0  0
   13.5345    3.9325    0.0000 C   0  0  0  0  0  0  0  0  0  0  0  0
   13.5345    3.1074    0.0000 C   0  0  0  0  0  0  0  0  0  0  0  0
   11.3367    2.6750    0.0000 C   0  0  0  0  0  0  0  0  0  0  0  0
   12.8066    5.1985    0.0000 C   0  0  0  0  0  0  0  0  0  0  0  0
   11.3367    4.3648    0.0000 C   0  0  0  0  0  0  0  0  0  0  0  0
   14.2490    4.3449    0.0000 C   0  0  0  0  0  0  0  0  0  0  0  0
   14.2490    2.6949    0.0000 C   0  0  0  0  0  0  0  0  0  0  0  0
   14.9634    3.9325    0.0000 C   0  0  0  0  0  0  0  0  0  0  0  0
   14.9634    3.1074    0.0000 C   0  0  0  0  0  0  0  0  0  0  0  0
   13.5258    5.6026    0.0000 C   0  0  0  0  0  0  0  0  0  0  0  0
   12.0969    5.6191    0.0000 C   0  0  0  0  0  0  0  0  0  0  0  0
   12.1065    6.4441    0.0000 C   0  0  0  0  0  0  0  0  0  0  0  0
   13.5353    6.4275    0.0000 C   0  0  0  0  0  0  0  0  0  0  0  0
   16.2254    3.5200    0.0000 C   0  0  0  0  0  0  0  0  0  0  0  0
   12.8257    6.8483    0.0000 C   0  0  0  0  0  0  0  0  0  0  0  0
   11.4064    7.6897    0.0000 C   0  0  0  0  0  0  0  0  0  0  0  0
   14.9641    6.4110    0.0000 C   0  0  0  0  0  0  0  0  0  0  0  0
   13.5544    8.0774    0.0000 C   0  0  0  0  0  0  0  0  0  0  0  0
  1 13  1  0
  2 16  1  0
  3 18  1  0
  4 21  1  0
  4 27  1  0
  5 22  1  0
  5 27  1  0
  6 18  2  0
  7 25  1  0
  7 29  1  0
  8 26  1  0
  8 30  1  0
  9 28  1  0
  9 31  1  0
 10 11  1  0
 10 13  1  0
 10 16  1  0
 11 12  1  0
 11 18  1  0
 12 14  1  0
 12 17  1  0
 13 15  1  0
 14 15  2  0
 14 19  1  0
 15 20  1  0
 17 23  2  0
 17 24  1  0
 19 21  2  0
 20 22  2  0
 21 22  1  0
 23 26  1  0
 24 25  2  0
 25 28  1  0
 26 28  2  0
M  END
$$$$
