
     RDKit          2D

  8  8  0  0  0  0  0  0  0  0999 V2000
   16.7886  -10.1525    0.0000 O   0  0  0  0  0  0  0  0  0  0  0  0
   16.7886   -6.8525    0.0000 O   0  0  0  0  0  0  0  0  0  0  0  0
   16.7886   -9.3275    0.0000 C   0  0  0  0  0  0  0  0  0  0  0  0
   16.7886   -7.6775    0.0000 C   0  0  0  0  0  0  0  0  0  0  0  0
   17.5032   -8.9150    0.0000 C   0  0  0  0  0  0  0  0  0  0  0  0
   17.5032   -8.0900    0.0000 C   0  0  0  0  0  0  0  0  0  0  0  0
   16.0742   -8.9150    0.0000 C   0  0  0  0  0  0  0  0  0  0  0  0
   16.0742   -8.0900    0.0000 C   0  0  0  0  0  0  0  0  0  0  0  0
  1  3  1  0
  2  4  1  0
  3  5  2  0
  3  7  1  0
  4  6  2  0
  4  8  1  0
  5  6  1  0
  7  8  2  0
M  END
$$$$
