
     RDKit          2D

 34 38  0  0  0  0  0  0  0  0999 V2000
    7.9731   -6.2691    0.0000 C   0  0  0  0  0  0  0  0  0  0  0  0
    6.1236   -0.0259    0.0000 C   0  0  0  0  0  0  0  0  0  0  0  0
    5.9400   -0.8302    0.0000 C   0  0  0  0  0  0  0  0  0  0  0  0
    8.3604   -5.5407    0.0000 C   0  0  0  0  0  0  0  0  0  0  0  0
    7.1486   -6.2979    0.0000 C   0  0  0  0  0  0  0  0  0  0  0  0
    4.5181   -2.1077    0.0000 C   0  0  0  0  0  0  0  0  0  0  0  0
    5.5188    0.5351    0.0000 C   0  0  0  0  0  0  0  0  0  0  0  0
    5.1517   -1.0734    0.0000 C   0  0  0  0  0  0  0  0  0  0  0  0
    4.2161    0.9370    0.0000 C   0  0  0  0  0  0  0  0  0  0  0  0
    3.3911    0.9370    0.0000 C   0  0  0  0  0  0  0  0  0  0  0  0
    2.0884    0.5351    0.0000 C   0  0  0  0  0  0  0  0  0  0  0  0
    1.4836   -0.0259    0.0000 C   0  0  0  0  0  0  0  0  0  0  0  0
    6.6615   -3.3452    0.0000 C   0  0  0  0  0  0  0  0  0  0  0  0
    5.9470   -4.5827    0.0000 C   0  0  0  0  0  0  0  0  0  0  0  0
    4.5181   -2.9327    0.0000 C   0  0  0  0  0  0  0  0  0  0  0  0
    7.9232   -4.8411    0.0000 C   0  0  0  0  0  0  0  0  0  0  0  0
    6.7114   -5.5983    0.0000 C   0  0  0  0  0  0  0  0  0  0  0  0
    3.8036   -1.6952    0.0000 C   0  0  0  0  0  0  0  0  0  0  0  0
    5.9470   -2.9327    0.0000 C   0  0  0  0  0  0  0  0  0  0  0  0
    5.2326   -4.1702    0.0000 C   0  0  0  0  0  0  0  0  0  0  0  0
    2.4555   -1.0734    0.0000 C   0  0  0  0  0  0  0  0  0  0  0  0
    4.7305    0.2919    0.0000 C   0  0  0  0  0  0  0  0  0  0  0  0
    2.8767    0.2919    0.0000 C   0  0  0  0  0  0  0  0  0  0  0  0
    1.6672   -0.8302    0.0000 C   0  0  0  0  0  0  0  0  0  0  0  0
    4.5469   -0.5123    0.0000 C   0  0  0  0  0  0  0  0  0  0  0  0
    3.0603   -0.5123    0.0000 C   0  0  0  0  0  0  0  0  0  0  0  0
    7.4860   -4.1990    0.0000 C   0  0  0  0  0  0  0  0  0  0  0  0
    6.6615   -4.1702    0.0000 C   0  0  0  0  0  0  0  0  0  0  0  0
    1.0624   -1.3914    0.0000 Cl  0  0  0  0  0  0  0  0  0  0  0  0
    8.2275   -4.5607    0.0000 N   0  0  0  0  0  0  0  0  0  0  0  0
    5.2326   -3.3452    0.0000 N   0  0  0  0  0  0  0  0  0  0  0  0
    7.0987   -4.8699    0.0000 N   0  0  0  0  0  0  0  0  0  0  0  0
    3.8036   -0.8702    0.0000 N   0  0  0  0  0  0  0  0  0  0  0  0
    7.9232   -3.4994    0.0000 O   0  0  0  0  0  0  0  0  0  0  0  0
  3  2  2  0
  4  1  1  0
  5  1  1  0
  7  2  1  0
  8  3  1  0
 10  9  1  0
 12 11  1  0
 15  6  1  0
 16  4  1  0
 17  5  1  0
 18  6  1  0
 19 13  1  0
 20 14  1  0
 22  7  2  0
 22  9  1  0
 23 10  1  0
 23 11  2  0
 24 12  2  0
 24 21  1  0
 25  8  2  0
 25 22  1  0
 26 21  2  0
 26 23  1  0
 28 13  1  0
 28 14  1  0
 28 27  1  0
 29 24  1  0
 30 27  2  3
 31 15  1  0
 31 19  1  0
 31 20  1  0
 32 16  1  0
 32 17  1  0
 32 28  1  0
 33 18  1  0
 33 25  1  0
 33 26  1  0
 34 27  1  0
M  END
$$$$
