
     RDKit          2D

 10  9  0  0  0  0  0  0  0  0999 V2000
   -0.9355   -0.2615    0.0000 C   0  0  0  0  0  0  0  0  0  0  0  0
   -0.2210   -0.6740    0.0000 O   0  0  0  0  0  0  0  0  0  0  0  0
   -1.6500   -0.6740    0.0000 P   0  0  0  0  0  0  0  0  0  0  0  0
   -2.3644   -1.0865    0.0000 O   0  0  0  0  0  0  0  0  0  0  0  0
   -1.2375   -1.3884    0.0000 O   0  0  0  0  0  0  0  0  0  0  0  0
   -2.0625    0.0404    0.0000 O   0  0  0  0  0  0  0  0  0  0  0  0
   -0.9355    0.5634    0.0000 P   0  0  0  0  0  0  0  0  0  0  0  0
   -0.9355    1.3884    0.0000 O   0  0  0  0  0  0  0  0  0  0  0  0
   -0.1105    0.5634    0.0000 O   0  0  0  0  0  0  0  0  0  0  0  0
   -1.7605    0.5634    0.0000 O   0  0  0  0  0  0  0  0  0  0  0  0
  1  2  1  0
  1  3  1  0
  3  4  2  0
  3  5  1  0
  3  6  1  0
  1  7  1  0
  7  8  2  0
  7  9  1  0
  7 10  1  0
M  END
$$$$
