
     RDKit          2D

 15 16  0  0  1  0  0  0  0  0999 V2000
    2.5600   -1.0718    0.0000 C   0  0  0  0  0  0  0  0  0  0  0  0
    2.5600    0.0323    0.0000 C   0  0  0  0  0  0  0  0  0  0  0  0
   -0.1477   -0.1073    0.0000 C   0  0  0  0  0  0  0  0  0  0  0  0
   -0.1477   -0.9323    0.0000 C   0  0  0  0  0  0  0  0  0  0  0  0
    0.6773   -0.1073    0.0000 C   0  0  0  0  0  0  0  0  0  0  0  0
    1.4620   -1.1872    0.0000 C   0  0  0  0  0  0  0  0  0  0  0  0
    1.7169   -1.9718    0.0000 C   0  0  0  0  0  0  0  0  0  0  0  0
    1.9469   -0.5198    0.0000 C   0  0  0  0  0  0  0  0  0  0  0  0
    0.6773   -0.9323    0.0000 N   0  0  0  0  0  0  0  0  0  0  0  0
   -0.7310   -1.5156    0.0000 O   0  0  0  0  0  0  0  0  0  0  0  0
    1.1649   -2.5849    0.0000 O   0  0  0  0  0  0  0  0  0  0  0  0
    2.5239   -2.1434    0.0000 O   0  0  0  0  0  0  0  0  0  0  0  0
    1.2989    0.9564    0.0000 O   0  0  0  0  0  0  0  0  0  0  0  0
    2.0692    0.7061    0.0000 O   0  0  0  0  0  0  0  0  0  0  0  0
    1.4620    0.1477    0.0000 S   0  0  0  0  0  0  0  0  0  0  0  0
  4  3  1  0
  5  3  1  1
  6  7  1  6
  8  1  1  0
  8  2  1  0
  8  6  1  0
  9  4  1  0
  9  5  1  0
  9  6  1  0
 10  4  2  0
 11  7  2  0
 12  7  1  0
 15  5  1  0
 15  8  1  0
 15 13  2  0
 15 14  2  0
M  END
$$$$
