
     RDKit          2D

  7  6  0  0  0  0  0  0  0  0999 V2000
   -0.7251   -0.1949    0.0000 N   0  0  0  0  0  0  0  0  0  0  0  0
    1.4395   -0.4941    0.0000 O   0  0  0  0  0  0  0  0  0  0  0  0
    0.0103   -0.5689    0.0000 C   0  0  0  0  0  0  0  0  0  0  0  0
    0.7083   -0.1201    0.0000 C   0  0  0  0  0  0  0  0  0  0  0  0
   -1.4166   -0.6448    0.0000 C   0  0  0  0  0  0  0  0  0  0  0  0
   -0.7689    0.6288    0.0000 C   0  0  0  0  0  0  0  0  0  0  0  0
   -1.4395    0.2175    0.0000 C   0  0  0  0  0  0  0  0  0  0  0  0
  2  4  1  0
  3  1  1  0
  4  3  1  0
  1  5  1  0
  1  6  1  0
  1  7  1  0
M  CHG  1   1   1
M  ISO  1   7  11
M  END
$$$$
