
     RDKit          2D

 21 23  0  0  0  0  0  0  0  0999 V2000
    1.7727    0.4257    0.0000 N   0  0  0  0  0  0  0  0  0  0  0  0
    2.4847    0.8424    0.0000 C   0  0  0  0  0  0  0  0  0  0  0  0
    2.4812    1.6649    0.0000 C   0  0  0  0  0  0  0  0  0  0  0  0
    1.7636    2.0744    0.0000 N   0  0  0  0  0  0  0  0  0  0  0  0
    1.0516    1.6577    0.0000 C   0  0  0  0  0  0  0  0  0  0  0  0
    1.0573    0.8316    0.0000 C   0  0  0  0  0  0  0  0  0  0  0  0
    1.7783   -0.4004    0.0000 C   0  0  0  0  0  0  0  0  0  0  0  0
    1.0663   -0.8171    0.0000 C   0  0  0  0  0  0  0  0  0  0  0  0
    1.0718   -1.6432    0.0000 C   0  0  0  0  0  0  0  0  0  0  0  0
    1.7873   -2.0491    0.0000 C   0  0  0  0  0  0  0  0  0  0  0  0
    2.4993   -1.6324    0.0000 C   0  0  0  0  0  0  0  0  0  0  0  0
    2.4958   -0.8099    0.0000 C   0  0  0  0  0  0  0  0  0  0  0  0
    0.3487   -0.4076    0.0000 S   0  0  0  0  0  0  0  0  0  0  0  0
   -0.3632   -0.8243    0.0000 C   0  0  0  0  0  0  0  0  0  0  0  0
   -1.0787   -0.4184    0.0000 C   0  0  0  0  0  0  0  0  0  0  0  0
   -1.7907   -0.8351    0.0000 C   0  0  0  0  0  0  0  0  0  0  0  0
   -1.7873   -1.6577    0.0000 C   0  0  0  0  0  0  0  0  0  0  0  0
   -1.0697   -2.0671    0.0000 C   0  0  0  0  0  0  0  0  0  0  0  0
   -0.3577   -1.6504    0.0000 C   0  0  0  0  0  0  0  0  0  0  0  0
   -2.4993   -2.0744    0.0000 C   0  0  0  0  0  0  0  0  0  0  0  0
   -1.0842    0.4076    0.0000 C   0  0  0  0  0  0  0  0  0  0  0  0
  1  2  1  0
  2  3  1  0
  3  4  1  0
  4  5  1  0
  5  6  1  0
  1  6  1  0
  7  8  1  0
  8  9  2  0
  9 10  1  0
 10 11  2  0
 11 12  1  0
  7 12  2  0
 14 15  2  0
 15 16  1  0
 16 17  2  0
 17 18  1  0
 18 19  2  0
 14 19  1  0
 13 14  1  0
 17 20  1  0
 15 21  1  0
  8 13  1  0
  1  7  1  0
M  END
$$$$
