
     RDKit          2D

 26 28  0  0  1  0  0  0  0  0999 V2000
   -1.5956   -1.7768    0.0000 N   0  0  0  0  0  0  0  0  0  0  0  0
   -1.4241   -0.9698    0.0000 C   0  0  0  0  0  0  0  0  0  0  0  0
   -2.0372   -0.4178    0.0000 O   0  0  0  0  0  0  0  0  0  0  0  0
   -0.6394   -0.7149    0.0000 C   0  0  0  0  0  0  0  0  0  0  0  0
   -0.3845    0.0698    0.0000 C   0  0  0  0  0  0  0  0  0  0  0  0
    0.4405    0.0698    0.0000 C   0  0  0  0  0  0  0  0  0  0  0  0
    0.6954   -0.7149    0.0000 C   0  0  0  0  0  0  0  0  0  0  0  0
    0.0280   -1.1998    0.0000 N   0  0  0  0  0  0  0  0  0  0  0  0
    0.0280   -2.0248    0.0000 C   0  0  0  0  0  0  0  0  0  0  0  0
   -0.6865   -2.4373    0.0000 O   0  0  0  0  0  0  0  0  0  0  0  0
    0.7425   -2.4373    0.0000 C   0  0  0  0  0  0  0  0  0  0  0  0
    0.7425   -3.2623    0.0000 C   0  0  0  0  0  0  0  0  0  0  0  0
    0.0280   -3.6748    0.0000 C   0  0  0  0  0  0  0  0  0  0  0  0
   -0.0582   -4.4953    0.0000 C   0  0  0  0  0  0  0  0  0  0  0  0
   -0.8652   -4.6668    0.0000 N   0  0  0  0  0  0  0  0  0  0  0  0
   -1.2777   -3.9523    0.0000 C   0  0  0  0  0  0  0  0  0  0  0  0
   -0.7257   -3.3392    0.0000 N   0  0  0  0  0  0  0  0  0  0  0  0
    1.4569   -2.0248    0.0000 N   0  0  0  0  0  0  0  0  0  0  0  0
    2.1714   -2.4373    0.0000 C   0  0  0  0  0  0  0  0  0  0  0  0
    2.1714   -3.2623    0.0000 O   0  0  0  0  0  0  0  0  0  0  0  0
    2.8859   -2.0248    0.0000 C   0  0  0  0  0  0  0  0  0  0  0  0
    2.9721   -1.2043    0.0000 C   0  0  0  0  0  0  0  0  0  0  0  0
    3.7791   -1.0328    0.0000 C   0  0  0  0  0  0  0  0  0  0  0  0
    4.1916   -1.7472    0.0000 C   0  0  0  0  0  0  0  0  0  0  0  0
    5.0121   -1.8335    0.0000 O   0  0  0  0  0  0  0  0  0  0  0  0
    3.6396   -2.3603    0.0000 N   0  0  0  0  0  0  0  0  0  0  0  0
  1  2  1  0
  2  3  2  0
  4  2  1  6
  4  5  1  0
  5  6  1  0
  6  7  1  0
  7  8  1  0
  4  8  1  0
  8  9  1  0
  9 10  2  0
  9 11  1  0
 11 12  1  1
 12 13  1  0
 13 14  2  0
 14 15  1  0
 15 16  2  0
 16 17  1  0
 13 17  1  0
 11 18  1  0
 18 19  1  0
 19 20  2  0
 21 19  1  6
 21 22  1  0
 22 23  1  0
 23 24  1  0
 24 25  2  0
 24 26  1  0
 21 26  1  0
M  END
$$$$
