
     RDKit          2D

 28 31  0  0  0  0  0  0  0  0999 V2000
    5.9773    0.9760    0.0000 C   0  0  0  0  0  0  0  0  0  0  0  0
    5.9773    1.8010    0.0000 C   0  0  0  0  0  0  0  0  0  0  0  0
    5.2628    0.5635    0.0000 C   0  0  0  0  0  0  0  0  0  0  0  0
   -2.2177   -0.8440    0.0000 C   0  0  0  0  0  0  0  0  0  0  0  0
   -1.5258   -1.2933    0.0000 C   0  0  0  0  0  0  0  0  0  0  0  0
    5.2628    2.2135    0.0000 C   0  0  0  0  0  0  0  0  0  0  0  0
    4.5483    0.9760    0.0000 C   0  0  0  0  0  0  0  0  0  0  0  0
   -2.0042   -0.0471    0.0000 C   0  0  0  0  0  0  0  0  0  0  0  0
   -0.0877   -0.9876    0.0000 C   0  0  0  0  0  0  0  0  0  0  0  0
    3.8339    2.2135    0.0000 C   0  0  0  0  0  0  0  0  0  0  0  0
    3.1194    0.9760    0.0000 C   0  0  0  0  0  0  0  0  0  0  0  0
    3.1194    1.8010    0.0000 C   0  0  0  0  0  0  0  0  0  0  0  0
   -0.8846   -0.7741    0.0000 C   0  0  0  0  0  0  0  0  0  0  0  0
    0.4956   -0.4043    0.0000 C   0  0  0  0  0  0  0  0  0  0  0  0
    0.8655    0.9760    0.0000 C   0  0  0  0  0  0  0  0  0  0  0  0
    2.4049    2.2135    0.0000 C   0  0  0  0  0  0  0  0  0  0  0  0
    0.8655    1.8010    0.0000 C   0  0  0  0  0  0  0  0  0  0  0  0
    1.6905    0.9760    0.0000 C   0  0  0  0  0  0  0  0  0  0  0  0
    2.4049    3.0385    0.0000 C   0  0  0  0  0  0  0  0  0  0  0  0
    0.2821    0.3926    0.0000 N   0  0  0  0  0  0  0  0  0  0  0  0
    4.5483    1.8010    0.0000 N   0  0  0  0  0  0  0  0  0  0  0  0
    1.6905    1.8010    0.0000 N   0  0  0  0  0  0  0  0  0  0  0  0
    1.2925   -0.6178    0.0000 O   0  0  0  0  0  0  0  0  0  0  0  0
    0.2821    2.3843    0.0000 O   0  0  0  0  0  0  0  0  0  0  0  0
    1.6905    3.4510    0.0000 O   0  0  0  0  0  0  0  0  0  0  0  0
    3.1194    3.4510    0.0000 O   0  0  0  0  0  0  0  0  0  0  0  0
   -1.1803   -0.0039    0.0000 S   0  0  0  0  0  0  0  0  0  0  0  0
    2.4049    0.5635    0.0000 S   0  0  0  0  0  0  0  0  0  0  0  0
  2  1  2  0
  3  1  1  0
  5  4  1  0
  6  2  1  0
  7  3  2  0
  8  4  2  0
 12 10  1  0
 12 11  1  0
 13  5  2  0
 13  9  1  0
 14  9  1  0
 16 12  2  0
 17 15  1  0
 18 15  1  0
 19 16  1  0
 20 14  2  3
 15 20  1  6
 21  6  2  0
 21  7  1  0
 21 10  1  0
 22 16  1  0
 22 17  1  0
 22 18  1  0
 14 23  1  0
 24 17  2  0
 25 19  2  0
 26 19  1  0
 27  8  1  0
 27 13  1  0
 28 11  1  0
 18 28  1  6
M  CHG  2  21   1  26  -1
M  END
$$$$
