
     RDKit          2D

 21 22  0  0  0  0  0  0  0  0999 V2000
   -1.0992   -2.0625    0.0000 P   0  0  0  0  0  0  0  0  0  0  0  0
   -1.0992    2.0625    0.0000 P   0  0  0  0  0  0  0  0  0  0  0  0
   -0.3848   -1.6500    0.0000 O   0  0  0  0  0  0  0  0  0  0  0  0
   -0.3848    1.6500    0.0000 O   0  0  0  0  0  0  0  0  0  0  0  0
   -1.8137   -2.4750    0.0000 O   0  0  0  0  0  0  0  0  0  0  0  0
   -0.6867   -2.7770    0.0000 O   0  0  0  0  0  0  0  0  0  0  0  0
   -1.5118   -1.3480    0.0000 O   0  0  0  0  0  0  0  0  0  0  0  0
   -1.8137    2.4750    0.0000 O   0  0  0  0  0  0  0  0  0  0  0  0
   -0.6867    2.7770    0.0000 O   0  0  0  0  0  0  0  0  0  0  0  0
   -1.5118    1.3480    0.0000 O   0  0  0  0  0  0  0  0  0  0  0  0
    0.3297   -0.4125    0.0000 C   0  0  0  0  0  0  0  0  0  0  0  0
    0.3297    0.4125    0.0000 C   0  0  0  0  0  0  0  0  0  0  0  0
   -0.3848   -0.8250    0.0000 C   0  0  0  0  0  0  0  0  0  0  0  0
   -1.0992   -0.4125    0.0000 C   0  0  0  0  0  0  0  0  0  0  0  0
   -0.3848    0.8250    0.0000 C   0  0  0  0  0  0  0  0  0  0  0  0
   -1.0992    0.4125    0.0000 C   0  0  0  0  0  0  0  0  0  0  0  0
    1.0672   -0.8536    0.0000 C   0  0  0  0  0  0  0  0  0  0  0  0
    1.0672    0.8536    0.0000 C   0  0  0  0  0  0  0  0  0  0  0  0
   -1.8137   -0.8250    0.0000 C   0  0  0  0  0  0  0  0  0  0  0  0
    1.8147   -0.4296    0.0000 C   0  0  0  0  0  0  0  0  0  0  0  0
    1.8147    0.4296    0.0000 C   0  0  0  0  0  0  0  0  0  0  0  0
  1  3  1  0
  1  5  1  0
  1  6  1  0
  1  7  2  0
  2  4  1  0
  2  8  1  0
  2  9  1  0
  2 10  2  0
  3 13  1  0
  4 15  1  0
 11 12  1  0
 11 13  2  0
 11 17  1  0
 12 15  2  0
 12 18  1  0
 13 14  1  0
 14 16  2  0
 14 19  1  0
 15 16  1  0
 17 20  2  0
 18 21  2  0
 20 21  1  0
M  CHG  4   5  -1   6  -1   8  -1   9  -1
M  END
$$$$
