
     RDKit          2D

 43 47  0  0  0  0  0  0  0  0999 V2000
    2.9045   -0.1985    0.0000 C   0  0  0  0  0  0  0  0  0  0  0  0
    2.9004   -1.0234    0.0000 C   0  0  0  0  0  0  0  0  0  0  0  0
    3.6211    0.2104    0.0000 C   0  0  0  0  0  0  0  0  0  0  0  0
    2.1922    0.2175    0.0000 N   0  0  0  0  0  0  0  0  0  0  0  0
    1.3673    1.0426    0.0000 C   0  0  0  0  0  0  0  0  0  0  0  0
    1.3673    0.2175    0.0000 C   0  0  0  0  0  0  0  0  0  0  0  0
    2.1922    1.0426    0.0000 C   0  0  0  0  0  0  0  0  0  0  0  0
   -2.1992    2.2758    0.0000 C   0  0  0  0  0  0  0  0  0  0  0  0
   -2.1992    1.4507    0.0000 C   0  0  0  0  0  0  0  0  0  0  0  0
   -1.4830    1.0383    0.0000 C   0  0  0  0  0  0  0  0  0  0  0  0
   -0.7711    1.4507    0.0000 C   0  0  0  0  0  0  0  0  0  0  0  0
   -0.7711    2.2758    0.0000 C   0  0  0  0  0  0  0  0  0  0  0  0
   -1.4830    2.6883    0.0000 N   0  0  0  0  0  0  0  0  0  0  0  0
   -1.4819    0.2132    0.0000 C   0  0  0  0  0  0  0  0  0  0  0  0
   -2.1922   -0.1971    0.0000 C   0  0  0  0  0  0  0  0  0  0  0  0
   -2.1912   -1.0220    0.0000 C   0  0  0  0  0  0  0  0  0  0  0  0
   -1.4763   -1.4336    0.0000 C   0  0  0  0  0  0  0  0  0  0  0  0
   -0.7623   -1.0202    0.0000 C   0  0  0  0  0  0  0  0  0  0  0  0
   -0.7634   -0.1953    0.0000 C   0  0  0  0  0  0  0  0  0  0  0  0
   -2.9117    1.0383    0.0000 C   0  0  0  0  0  0  0  0  0  0  0  0
   -3.6242    1.4507    0.0000 O   0  0  0  0  0  0  0  0  0  0  0  0
   -4.3367    1.0383    0.0000 C   0  0  0  0  0  0  0  0  0  0  0  0
   -5.0491    1.4507    0.0000 C   0  0  0  0  0  0  0  0  0  0  0  0
   -2.9117    0.2132    0.0000 O   0  0  0  0  0  0  0  0  0  0  0  0
   -4.3367    0.2132    0.0000 C   0  0  0  0  0  0  0  0  0  0  0  0
   -2.9134    2.6887    0.0000 C   0  0  0  0  0  0  0  0  0  0  0  0
   -0.0564    2.6877    0.0000 N   0  0  0  0  0  0  0  0  0  0  0  0
   -0.0618    1.0426    0.0000 C   0  0  0  0  0  0  0  0  0  0  0  0
    0.6506    1.4550    0.0000 O   0  0  0  0  0  0  0  0  0  0  0  0
    4.3284   -0.2077    0.0000 C   0  0  0  0  0  0  0  0  0  0  0  0
    5.0450    0.2011    0.0000 C   0  0  0  0  0  0  0  0  0  0  0  0
    5.0491    1.0261    0.0000 C   0  0  0  0  0  0  0  0  0  0  0  0
    4.3368    1.4421    0.0000 C   0  0  0  0  0  0  0  0  0  0  0  0
    3.6201    1.0333    0.0000 C   0  0  0  0  0  0  0  0  0  0  0  0
   -0.0474   -1.4317    0.0000 N   0  0  0  0  0  0  0  0  0  0  0  0
   -0.0608    0.2175    0.0000 O   0  0  0  0  0  0  0  0  0  0  0  0
   -0.0463   -2.2568    0.0000 O   0  0  0  0  0  0  0  0  0  0  0  0
    0.8725   -0.7712    0.0000 O   0  0  0  0  0  0  0  0  0  0  0  0
    2.1729   -1.4388    0.0000 C   0  0  0  0  0  0  0  0  0  0  0  0
    2.1690   -2.2698    0.0000 C   0  0  0  0  0  0  0  0  0  0  0  0
    2.8865   -2.6887    0.0000 C   0  0  0  0  0  0  0  0  0  0  0  0
    3.6141   -2.2733    0.0000 C   0  0  0  0  0  0  0  0  0  0  0  0
    3.6180   -1.4423    0.0000 C   0  0  0  0  0  0  0  0  0  0  0  0
 20 21  1  0
  8  9  2  0
 21 22  1  0
  9 10  1  0
 22 23  1  0
 10 11  1  0
 20 24  2  0
 11 12  2  0
 22 25  1  0
 12 13  1  0
  8 26  1  0
 13  8  1  0
 12 27  1  0
  4  7  1  0
 11 28  1  0
 10 14  1  0
 28 29  1  0
 29  5  1  0
  7  5  1  0
  1  4  1  0
  1  3  1  0
  1  2  1  0
  3 30  2  0
 30 31  1  0
 31 32  2  0
 32 33  1  0
 33 34  2  0
 34  3  1  0
 14 15  2  0
 15 16  1  0
 16 17  2  0
 17 18  1  0
 18 19  2  0
 19 14  1  0
 18 35  1  0
  5  6  1  0
 28 36  2  0
  9 20  1  0
 35 37  1  0
  6  4  1  0
 35 38  2  0
  2 39  2  0
 39 40  1  0
 40 41  2  0
 41 42  1  0
 42 43  2  0
  2 43  1  0
M  CHG  2  35   1  37  -1
M  END
$$$$
