
     RDKit          2D

 27 26  0  0  0  0  0  0  0  0999 V2000
    5.9960   -4.2868    0.0000 C   0  0  0  0  0  0  0  0  0  0  0  0
   21.7144   -4.2868    0.0000 C   0  0  0  0  0  0  0  0  0  0  0  0
   21.4124   -5.4137    0.0000 C   0  0  0  0  0  0  0  0  0  0  0  0
   20.5874   -3.9848    0.0000 C   0  0  0  0  0  0  0  0  0  0  0  0
    6.7105   -4.6993    0.0000 C   0  0  0  0  0  0  0  0  0  0  0  0
    7.4250   -4.2868    0.0000 C   0  0  0  0  0  0  0  0  0  0  0  0
    8.1394   -4.6993    0.0000 C   0  0  0  0  0  0  0  0  0  0  0  0
    8.8539   -4.2868    0.0000 C   0  0  0  0  0  0  0  0  0  0  0  0
    9.5684   -4.6993    0.0000 C   0  0  0  0  0  0  0  0  0  0  0  0
   10.2828   -4.2868    0.0000 C   0  0  0  0  0  0  0  0  0  0  0  0
   10.9973   -4.6993    0.0000 C   0  0  0  0  0  0  0  0  0  0  0  0
   11.7118   -4.2868    0.0000 C   0  0  0  0  0  0  0  0  0  0  0  0
   12.4262   -4.6993    0.0000 C   0  0  0  0  0  0  0  0  0  0  0  0
   13.1407   -4.2868    0.0000 C   0  0  0  0  0  0  0  0  0  0  0  0
   13.8552   -4.6993    0.0000 C   0  0  0  0  0  0  0  0  0  0  0  0
   14.5697   -4.2868    0.0000 C   0  0  0  0  0  0  0  0  0  0  0  0
   15.2841   -4.6993    0.0000 C   0  0  0  0  0  0  0  0  0  0  0  0
   15.9986   -4.2868    0.0000 C   0  0  0  0  0  0  0  0  0  0  0  0
   20.2854   -5.1118    0.0000 C   0  0  0  0  0  0  0  0  0  0  0  0
   16.7131   -4.6993    0.0000 C   0  0  0  0  0  0  0  0  0  0  0  0
   19.5710   -4.6993    0.0000 C   0  0  0  0  0  0  0  0  0  0  0  0
   20.9999   -4.6993    0.0000 N   0  0  0  0  0  0  0  0  0  0  0  0
   17.7295   -5.4137    0.0000 O   0  0  0  0  0  0  0  0  0  0  0  0
   18.5545   -3.9848    0.0000 O   0  0  0  0  0  0  0  0  0  0  0  0
   17.4275   -4.2868    0.0000 O   0  0  0  0  0  0  0  0  0  0  0  0
   18.8565   -5.1118    0.0000 O   0  0  0  0  0  0  0  0  0  0  0  0
   18.1420   -4.6993    0.0000 P   0  0  0  0  0  0  0  0  0  0  0  0
  5  1  1  0
  6  5  1  0
  7  6  1  0
  8  7  1  0
  9  8  1  0
 10  9  1  0
 11 10  1  0
 12 11  1  0
 13 12  1  0
 14 13  1  0
 15 14  1  0
 16 15  1  0
 17 16  1  0
 18 17  1  0
 20 18  1  0
 21 19  1  0
 22  2  1  0
 22  3  1  0
 22  4  1  0
 22 19  1  0
 25 20  1  0
 26 21  1  0
 27 23  2  0
 27 24  1  0
 27 25  1  0
 27 26  1  0
M  CHG  2  22   1  24  -1
M  END
$$$$
