
     RDKit          2D

 13 12  0  0  0  0  0  0  0  0999 V2000
    0.9428   -0.7144    0.0000 O   0  0  0  0  0  0  0  0  0  0  0  0
    1.6573   -0.3019    0.0000 C   0  0  0  0  0  0  0  0  0  0  0  0
    2.3717   -0.7144    0.0000 O   0  0  0  0  0  0  0  0  0  0  0  0
    1.6573    0.5230    0.0000 C   0  0  0  0  0  0  0  0  0  0  0  0
    2.3717    0.9355    0.0000 C   0  0  0  0  0  0  0  0  0  0  0  0
    2.7842    0.2210    0.0000 O   0  0  0  0  0  0  0  0  0  0  0  0
    3.0862    1.3480    0.0000 C   0  0  0  0  0  0  0  0  0  0  0  0
    3.8007    0.9355    0.0000 C   0  0  0  0  0  0  0  0  0  0  0  0
    3.8007    0.1105    0.0000 O   0  0  0  0  0  0  0  0  0  0  0  0
    4.5152    1.3480    0.0000 O   0  0  0  0  0  0  0  0  0  0  0  0
    1.9592    1.6500    0.0000 C   0  0  0  0  0  0  0  0  0  0  0  0
    2.3717    2.3644    0.0000 O   0  0  0  0  0  0  0  0  0  0  0  0
    1.1342    1.6500    0.0000 O   0  0  0  0  0  0  0  0  0  0  0  0
  1  2  1  0
  2  3  2  0
  2  4  1  0
  4  5  1  0
  5  6  1  0
  5  7  1  0
  7  8  1  0
  8  9  2  0
  8 10  1  0
  5 11  1  0
 11 12  2  0
 11 13  1  0
M  CHG  1  10  -1
M  END
$$$$
