
     RDKit          2D

  5  4  0  0  0  0  0  0  0  0999 V2000
   -1.0314    0.3718    0.0000 O   0  0  0  0  0  0  0  0  0  0  0  0
   -1.8567    1.1964    0.0000 O   0  0  0  0  0  0  0  0  0  0  0  0
   -1.0314    2.0218    0.0000 O   0  0  0  0  0  0  0  0  0  0  0  0
   -1.0314    1.1964    0.0000 S   0  0  0  0  0  0  0  0  0  0  0  0
   -0.2067    1.1964    0.0000 O   0  0  0  0  0  0  0  0  0  0  0  0
  1  4  2  0
  2  4  1  0
  3  4  2  0
  4  5  1  0
M  CHG  2   2  -1   5  -1
M  END
$$$$
