
     RDKit          2D

  9  8  0  0  0  0  0  0  0  0999 V2000
   -0.9760    0.3019    0.0000 O   0  0  0  0  0  0  0  0  0  0  0  0
   -0.1509    0.3019    0.0000 P   0  0  0  0  0  0  0  0  0  0  0  0
   -0.1509    1.1270    0.0000 O   0  0  0  0  0  0  0  0  0  0  0  0
   -0.1509   -0.5230    0.0000 O   0  0  0  0  0  0  0  0  0  0  0  0
    0.6741    0.3019    0.0000 O   0  0  0  0  0  0  0  0  0  0  0  0
    1.0866   -0.4125    0.0000 P   0  0  0  0  0  0  0  0  0  0  0  0
    1.4991   -1.1270    0.0000 O   0  0  0  0  0  0  0  0  0  0  0  0
    1.8010    0.0000    0.0000 O   0  0  0  0  0  0  0  0  0  0  0  0
    0.3720   -0.8251    0.0000 O   0  0  0  0  0  0  0  0  0  0  0  0
  1  2  1  0
  2  3  2  0
  2  4  1  0
  2  5  1  0
  5  6  1  0
  6  7  2  0
  6  8  1  0
  6  9  1  0
M  CHG  4   1  -1   4  -1   8  -1   9  -1
M  END
$$$$
