
     RDKit          2D

 12 12  0  0  0  0  0  0  0  0999 V2000
    3.3809    0.0000    0.0000 C   0  0  0  0  0  0  0  0  0  0  0  0
    3.3809    0.8250    0.0000 C   0  0  0  0  0  0  0  0  0  0  0  0
    2.6664   -0.4125    0.0000 C   0  0  0  0  0  0  0  0  0  0  0  0
    1.9519    0.8250    0.0000 C   0  0  0  0  0  0  0  0  0  0  0  0
    2.6664    2.0625    0.0000 C   0  0  0  0  0  0  0  0  0  0  0  0
    2.6664    1.2375    0.0000 C   0  0  0  0  0  0  0  0  0  0  0  0
    1.9519    0.0000    0.0000 C   0  0  0  0  0  0  0  0  0  0  0  0
    1.9519    3.3000    0.0000 C   0  0  0  0  0  0  0  0  0  0  0  0
    1.2375   -0.4125    0.0000 I   0  0  0  0  0  0  0  0  0  0  0  0
    1.2375    3.7125    0.0000 N   0  0  0  0  0  0  0  0  0  0  0  0
    2.6664    3.7125    0.0000 N   0  0  0  0  0  0  0  0  0  0  0  0
    1.9519    2.4750    0.0000 N   0  0  0  0  0  0  0  0  0  0  0  0
  2  1  2  0
  3  1  1  0
  6  2  1  0
  6  4  2  0
  6  5  1  0
  7  3  2  0
  7  4  1  0
  9  7  1  0
 10  8  2  3
 11  8  1  0
 12  5  1  0
 12  8  1  0
M  ISO  1   9 123
M  END
$$$$
