
     RDKit          2D

 27 30  0  0  0  0  0  0  0  0999 V2000
   -1.4997    1.4439    0.0000 C   0  0  0  0  0  0  0  0  0  0  0  0
   -1.4997    0.6189    0.0000 C   0  0  0  0  0  0  0  0  0  0  0  0
   -0.7835    0.2064    0.0000 C   0  0  0  0  0  0  0  0  0  0  0  0
   -0.0715    0.6189    0.0000 C   0  0  0  0  0  0  0  0  0  0  0  0
   -0.0715    1.4439    0.0000 C   0  0  0  0  0  0  0  0  0  0  0  0
   -0.7835    1.8564    0.0000 N   0  0  0  0  0  0  0  0  0  0  0  0
   -2.0824    0.0267    0.0000 C   0  0  0  0  0  0  0  0  0  0  0  0
   -2.9134    0.0267    0.0000 C   0  0  0  0  0  0  0  0  0  0  0  0
   -2.0824    2.0301    0.0000 C   0  0  0  0  0  0  0  0  0  0  0  0
   -3.4996    0.6164    0.0000 C   0  0  0  0  0  0  0  0  0  0  0  0
   -2.9134    2.0301    0.0000 C   0  0  0  0  0  0  0  0  0  0  0  0
   -3.4996    1.4439    0.0000 C   0  0  0  0  0  0  0  0  0  0  0  0
    0.6432    1.8559    0.0000 N   0  0  0  0  0  0  0  0  0  0  0  0
   -0.7825   -0.6185    0.0000 C   0  0  0  0  0  0  0  0  0  0  0  0
   -1.4958   -1.0309    0.0000 C   0  0  0  0  0  0  0  0  0  0  0  0
   -1.4948   -1.8559    0.0000 C   0  0  0  0  0  0  0  0  0  0  0  0
   -0.7798   -2.2675    0.0000 C   0  0  0  0  0  0  0  0  0  0  0  0
   -0.0658   -1.8541    0.0000 C   0  0  0  0  0  0  0  0  0  0  0  0
   -0.0669   -1.0291    0.0000 C   0  0  0  0  0  0  0  0  0  0  0  0
   -0.7787   -3.0925    0.0000 F   0  0  0  0  0  0  0  0  0  0  0  0
    1.3553    1.4425    0.0000 C   0  0  0  0  0  0  0  0  0  0  0  0
    2.0701    1.8545    0.0000 C   0  0  0  0  0  0  0  0  0  0  0  0
    2.0706    2.6795    0.0000 N   0  0  0  0  0  0  0  0  0  0  0  0
    1.3566    3.0925    0.0000 C   0  0  0  0  0  0  0  0  0  0  0  0
    0.6418    2.6806    0.0000 C   0  0  0  0  0  0  0  0  0  0  0  0
    2.7854    3.0915    0.0000 C   0  0  0  0  0  0  0  0  0  0  0  0
    3.4996    2.6784    0.0000 C   0  0  0  0  0  0  0  0  0  0  0  0
  5 13  1  0
  3 14  1  0
  1  2  2  0
  2  3  1  0
  3  4  2  0
  4  5  1  0
  5  6  2  0
 14 15  2  0
 15 16  1  0
 16 17  2  0
 17 18  1  0
 18 19  2  0
 19 14  1  0
  2  7  1  0
 17 20  1  0
  7  8  1  0
  1  9  1  0
  8 10  1  0
  9 11  1  0
 10 12  1  0
 13 21  1  0
 21 22  1  0
 22 23  1  0
 23 24  1  0
 24 25  1  0
 25 13  1  0
 11 12  1  0
 23 26  1  0
  6  1  1  0
 26 27  1  0
M  END
$$$$
