
     RDKit          2D

 19 20  0  0  0  0  0  0  0  0999 V2000
    0.3152   -0.7953    0.0000 S   0  0  0  0  0  0  0  0  0  0  0  0
    1.0333   -1.2087    0.0000 N   0  0  0  0  0  0  0  0  0  0  0  0
    1.7807   -0.8538    0.0000 C   0  0  0  0  0  0  0  0  0  0  0  0
   -0.4071   -0.3820    0.0000 C   0  0  0  0  0  0  0  0  0  0  0  0
    0.3152   -1.6220    0.0000 O   0  0  0  0  0  0  0  0  0  0  0  0
    0.3069    0.0312    0.0000 O   0  0  0  0  0  0  0  0  0  0  0  0
    2.5114   -1.2546    0.0000 O   0  0  0  0  0  0  0  0  0  0  0  0
    1.7974   -0.0270    0.0000 C   0  0  0  0  0  0  0  0  0  0  0  0
   -1.1210   -0.7953    0.0000 C   0  0  0  0  0  0  0  0  0  0  0  0
   -0.4071    0.4447    0.0000 C   0  0  0  0  0  0  0  0  0  0  0  0
   -1.8350    0.4447    0.0000 C   0  0  0  0  0  0  0  0  0  0  0  0
   -2.5490    0.8580    0.0000 N   0  0  0  0  0  0  0  0  0  0  0  0
   -1.1210    0.8580    0.0000 C   0  0  0  0  0  0  0  0  0  0  0  0
   -1.8350   -0.3820    0.0000 C   0  0  0  0  0  0  0  0  0  0  0  0
    2.5239    0.3612    0.0000 C   0  0  0  0  0  0  0  0  0  0  0  0
    1.0959    0.3988    0.0000 C   0  0  0  0  0  0  0  0  0  0  0  0
    1.1168    1.2213    0.0000 C   0  0  0  0  0  0  0  0  0  0  0  0
    2.5490    1.1878    0.0000 C   0  0  0  0  0  0  0  0  0  0  0  0
    1.8475    1.6220    0.0000 C   0  0  0  0  0  0  0  0  0  0  0  0
  2  1  1  0
  3  2  1  0
  4  1  1  0
  5  1  2  0
  6  1  2  0
  7  3  2  0
  8  3  1  0
  9  4  2  0
 10  4  1  0
 11 13  1  0
 12 11  1  0
 13 10  2  0
 14  9  1  0
 15  8  2  0
 16  8  1  0
 17 16  2  0
 18 15  1  0
 19 17  1  0
 11 14  2  0
 18 19  2  0
M  END
$$$$
