 
     RDKit          2D

 11 11  0  0  0  0  0  0  0  0999 V2000
   26.5035  -17.9954    0.0000 C   0  0  0  0  0  0  0  0  0  0  0  0
   26.5035  -18.8204    0.0000 C   0  0  0  0  0  0  0  0  0  0  0  0
   27.2180  -19.2329    0.0000 N   0  0  0  0  0  0  0  0  0  0  0  0
   27.9325  -18.8204    0.0000 C   0  0  0  0  0  0  0  0  0  0  0  0
   27.9325  -17.9954    0.0000 C   0  0  0  0  0  0  0  0  0  0  0  0
   27.2180  -17.5829    0.0000 N   0  0  0  0  0  0  0  0  0  0  0  0
   28.6580  -19.2394    0.0000 C   0  0  0  0  0  0  0  0  0  0  0  0
   25.7890  -17.5829    0.0000 C   0  0  0  0  0  0  0  0  0  0  0  0
   25.0845  -17.9897    0.0000 O   0  0  0  0  0  0  0  0  0  0  0  0
   25.7890  -16.7580    0.0000 O   0  0  0  0  0  0  0  0  0  0  0  0
   27.2180  -20.0578    0.0000 O   0  0  0  0  0  0  0  0  0  0  0  0
  1  2  2  0
  2  3  1  0
  3  4  2  0
  4  5  1  0
  5  6  2  0
  1  6  1  0
  4  7  1  0
  1  8  1  0
  8  9  1  0
  8 10  2  0
  3 11  1  0
M  CHG  2   3   1  11  -1
M  END
$$$$
