
     RDKit          2D

 34 36  0  0  0  0  0  0  0  0999 V2000
    1.4165    7.2286    0.0000 C   0  0  0  0  0  0  0  0  0  0  0  0
   -3.6918    6.4254    0.0000 C   0  0  0  0  0  0  0  0  0  0  0  0
    0.2221    5.6554    0.0000 C   0  0  0  0  0  0  0  0  0  0  0  0
   -1.5641    5.9383    0.0000 C   0  0  0  0  0  0  0  0  0  0  0  0
    0.8230    6.6555    0.0000 C   0  0  0  0  0  0  0  0  0  0  0  0
   -2.9634    6.8127    0.0000 C   0  0  0  0  0  0  0  0  0  0  0  0
   -1.1517    1.1121    0.0000 C   0  0  0  0  0  0  0  0  0  0  0  0
   -0.4372    1.5246    0.0000 C   0  0  0  0  0  0  0  0  0  0  0  0
   -1.8661    1.5246    0.0000 C   0  0  0  0  0  0  0  0  0  0  0  0
    0.2348    3.1078    0.0000 C   0  0  0  0  0  0  0  0  0  0  0  0
   -0.7578    4.1357    0.0000 C   0  0  0  0  0  0  0  0  0  0  0  0
   -1.1018    4.1902    0.0000 C   0  0  0  0  0  0  0  0  0  0  0  0
   -2.3635    3.5194    0.0000 C   0  0  0  0  0  0  0  0  0  0  0  0
    0.8283    3.6809    0.0000 C   0  0  0  0  0  0  0  0  0  0  0  0
   -0.1643    4.7088    0.0000 C   0  0  0  0  0  0  0  0  0  0  0  0
   -1.4891    4.9186    0.0000 C   0  0  0  0  0  0  0  0  0  0  0  0
   -2.7508    4.2478    0.0000 C   0  0  0  0  0  0  0  0  0  0  0  0
   -0.4372    2.3496    0.0000 C   0  0  0  0  0  0  0  0  0  0  0  0
   -1.8661    2.3496    0.0000 C   0  0  0  0  0  0  0  0  0  0  0  0
   -0.5582    3.3352    0.0000 C   0  0  0  0  0  0  0  0  0  0  0  0
   -1.5390    3.4906    0.0000 C   0  0  0  0  0  0  0  0  0  0  0  0
    0.6287    4.4814    0.0000 C   0  0  0  0  0  0  0  0  0  0  0  0
   -2.3136    4.9474    0.0000 C   0  0  0  0  0  0  0  0  0  0  0  0
    1.8231    6.0546    0.0000 C   0  0  0  0  0  0  0  0  0  0  0  0
   -1.8265    7.0751    0.0000 C   0  0  0  0  0  0  0  0  0  0  0  0
    1.0226    5.8550    0.0000 C   0  0  0  0  0  0  0  0  0  0  0  0
   -2.2637    6.3755    0.0000 C   0  0  0  0  0  0  0  0  0  0  0  0
   -1.1517    2.7621    0.0000 C   0  0  0  0  0  0  0  0  0  0  0  0
    2.0505    6.8476    0.0000 O   0  0  0  0  0  0  0  0  0  0  0  0
    2.3962    5.4611    0.0000 O   0  0  0  0  0  0  0  0  0  0  0  0
   -1.0020    7.0464    0.0000 O   0  0  0  0  0  0  0  0  0  0  0  0
   -2.2139    7.8036    0.0000 O   0  0  0  0  0  0  0  0  0  0  0  0
    1.2222    5.0545    0.0000 O   0  0  0  0  0  0  0  0  0  0  0  0
   -2.7009    5.6759    0.0000 O   0  0  0  0  0  0  0  0  0  0  0  0
  5  1  1  0
  6  2  1  0
  8  7  1  0
  9  7  1  0
 14 10  2  0
 15 11  1  0
 16 12  2  0
 17 13  1  0
 18  8  1  0
 19  9  1  0
 20 10  1  0
 20 11  2  0
 21 12  1  0
 21 13  2  0
 22 14  1  0
 22 15  2  0
 23 16  1  0
 23 17  2  0
 26  3  1  0
 26  5  1  0
 26 24  1  0
 27  4  1  0
 27  6  1  0
 27 25  1  0
 28 18  1  0
 28 19  1  0
 28 20  1  0
 28 21  1  0
 29 24  2  0
 30 24  1  0
 31 25  2  0
 32 25  1  0
 33 22  1  0
 33 26  1  0
 34 23  1  0
 34 27  1  0
M  END
$$$$
