
     RDKit          2D

 32 36  0  0  0  0  0  0  0  0999 V2000
   -1.7574   -1.4191    0.0000 O   0  0  0  0  0  0  0  0  0  0  0  0
    0.8290    1.3875    0.0000 O   0  0  0  0  0  0  0  0  0  0  0  0
   -0.3948   -0.4197    0.0000 N   0  0  0  0  0  0  0  0  0  0  0  0
   -0.6084   -1.2165    0.0000 C   0  0  0  0  0  0  0  0  0  0  0  0
    0.9028   -1.8426    0.0000 C   0  0  0  0  0  0  0  0  0  0  0  0
   -2.0373   -2.0416    0.0000 C   0  0  0  0  0  0  0  0  0  0  0  0
   -1.4150    0.2803    0.0000 C   0  0  0  0  0  0  0  0  0  0  0  0
    1.1164   -1.0457    0.0000 C   0  0  0  0  0  0  0  0  0  0  0  0
   -2.4498   -1.3271    0.0000 C   0  0  0  0  0  0  0  0  0  0  0  0
   -0.7006    0.6929    0.0000 C   0  0  0  0  0  0  0  0  0  0  0  0
   -1.0815   -1.8924    0.0000 C   0  0  0  0  0  0  0  0  0  0  0  0
   -0.1813    0.3771    0.0000 C   0  0  0  0  0  0  0  0  0  0  0  0
   -1.5548   -2.5682    0.0000 C   0  0  0  0  0  0  0  0  0  0  0  0
   -0.4057   -2.3655    0.0000 C   0  0  0  0  0  0  0  0  0  0  0  0
    0.6155    0.5907    0.0000 C   0  0  0  0  0  0  0  0  0  0  0  0
   -1.2061   -3.3158    0.0000 C   0  0  0  0  0  0  0  0  0  0  0  0
    0.3418   -2.0169    0.0000 C   0  0  0  0  0  0  0  0  0  0  0  0
   -2.3765   -2.4962    0.0000 C   0  0  0  0  0  0  0  0  0  0  0  0
   -0.4777   -3.1874    0.0000 C   0  0  0  0  0  0  0  0  0  0  0  0
   -1.6793   -3.9917    0.0000 C   0  0  0  0  0  0  0  0  0  0  0  0
    1.0176   -2.4901    0.0000 C   0  0  0  0  0  0  0  0  0  0  0  0
   -2.8498   -3.1720    0.0000 C   0  0  0  0  0  0  0  0  0  0  0  0
    0.1980   -3.6606    0.0000 C   0  0  0  0  0  0  0  0  0  0  0  0
    1.6259    1.6011    0.0000 C   0  0  0  0  0  0  0  0  0  0  0  0
   -2.5011   -3.9197    0.0000 C   0  0  0  0  0  0  0  0  0  0  0  0
    0.9457   -3.3119    0.0000 C   0  0  0  0  0  0  0  0  0  0  0  0
    1.8394    2.3978    0.0000 C   0  0  0  0  0  0  0  0  0  0  0  0
    1.2560    2.9813    0.0000 C   0  0  0  0  0  0  0  0  0  0  0  0
    2.6363    2.6115    0.0000 C   0  0  0  0  0  0  0  0  0  0  0  0
    1.4695    3.7782    0.0000 C   0  0  0  0  0  0  0  0  0  0  0  0
    2.8498    3.4083    0.0000 C   0  0  0  0  0  0  0  0  0  0  0  0
    2.2664    3.9917    0.0000 C   0  0  0  0  0  0  0  0  0  0  0  0
  1 11  1  0
  2 15  1  0
  2 24  1  0
  3  8  1  0
  3  9  1  0
  3 10  1  0
  3 12  1  0
  4  5  1  0
  4  6  1  0
  4  7  1  0
  4 11  1  0
  5  8  1  0
  6  9  1  0
  7 10  1  0
 11 13  1  0
 11 14  1  0
 12 15  1  0
 13 16  2  0
 13 18  1  0
 14 17  2  0
 14 19  1  0
 16 20  1  0
 17 21  1  0
 18 22  2  0
 19 23  2  0
 20 25  2  0
 21 26  2  0
 22 25  1  0
 23 26  1  0
 24 27  1  0
 27 28  2  0
 27 29  1  0
 28 30  1  0
 29 31  2  0
 30 32  2  0
 31 32  1  0
M  CHG  1   3   1
M  END
$$$$
