
     RDKit          2D

 26 27  0  0  0  0  0  0  0  0999 V2000
    2.4984    1.2236    0.0000 C   0  0  0  0  0  0  0  0  0  0  0  0
    2.4984    0.3986    0.0000 C   0  0  0  0  0  0  0  0  0  0  0  0
    1.7840   -0.0138    0.0000 C   0  0  0  0  0  0  0  0  0  0  0  0
    1.0695    0.3986    0.0000 C   0  0  0  0  0  0  0  0  0  0  0  0
    1.0695    1.2236    0.0000 C   0  0  0  0  0  0  0  0  0  0  0  0
    1.7840    1.6361    0.0000 C   0  0  0  0  0  0  0  0  0  0  0  0
    3.2130    1.6361    0.0000 N   0  0  0  0  0  0  0  0  0  0  0  0
    0.3440   -0.0202    0.0000 C   0  0  0  0  0  0  0  0  0  0  0  0
   -0.3661    0.3896    0.0000 C   0  0  0  0  0  0  0  0  0  0  0  0
   -1.0629   -0.0126    0.0000 C   0  0  0  0  0  0  0  0  0  0  0  0
   -1.0629   -0.8386    0.0000 C   0  0  0  0  0  0  0  0  0  0  0  0
   -1.7773   -1.2512    0.0000 C   0  0  0  0  0  0  0  0  0  0  0  0
   -2.4918   -0.8388    0.0000 C   0  0  0  0  0  0  0  0  0  0  0  0
   -2.4919   -0.0128    0.0000 C   0  0  0  0  0  0  0  0  0  0  0  0
   -1.7774    0.3997    0.0000 C   0  0  0  0  0  0  0  0  0  0  0  0
   -3.2130   -1.2539    0.0000 O   0  0  0  0  0  0  0  0  0  0  0  0
   -3.2008   -2.0678    0.0000 C   0  0  0  0  0  0  0  0  0  0  0  0
   -2.4953   -2.4611    0.0000 C   0  0  0  0  0  0  0  0  0  0  0  0
   -1.7992   -2.0453    0.0000 O   0  0  0  0  0  0  0  0  0  0  0  0
   -1.0925   -2.4393    0.0000 C   0  0  0  0  0  0  0  0  0  0  0  0
   -0.3971   -2.0238    0.0000 C   0  0  0  0  0  0  0  0  0  0  0  0
    0.3099   -2.4181    0.0000 O   0  0  0  0  0  0  0  0  0  0  0  0
    1.0051   -2.0027    0.0000 C   0  0  0  0  0  0  0  0  0  0  0  0
    1.7122   -2.3971    0.0000 C   0  0  0  0  0  0  0  0  0  0  0  0
    2.4074   -1.9816    0.0000 F   0  0  0  0  0  0  0  0  0  0  0  0
    3.2130    2.4611    0.0000 C   0  0  0  0  0  0  0  0  0  0  0  0
  1  2  2  0
  2  3  1  0
  3  4  2  0
  4  5  1  0
  5  6  2  0
  1  6  1  0
  1  7  1  0
  4  8  1  0
  8  9  2  0
  9 10  1  0
 10 11  2  0
 11 12  1  0
 12 13  2  0
 13 14  1  0
 14 15  2  0
 10 15  1  0
 13 16  1  0
 16 17  1  0
 17 18  1  0
 18 19  1  0
 19 20  1  0
 20 21  1  0
 21 22  1  0
 22 23  1  0
 23 24  1  0
 24 25  1  0
  7 26  1  0
M  ISO  1  25  18
M  END
$$$$
