
     RDKit          2D

 23 26  0  0  1  0  0  0  0  0999 V2000
    0.7296   -1.5424    0.0000 C   0  0  0  0  0  0  0  0  0  0  0  0
    4.0193    1.0490    0.0000 C   0  0  0  0  0  0  0  0  0  0  0  0
    2.8185   -2.0212    0.0000 C   0  0  0  0  0  0  0  0  0  0  0  0
    1.5417   -1.3972    0.0000 C   0  0  0  0  0  0  0  0  0  0  0  0
    6.9587   -1.3287    0.0000 C   0  0  0  0  0  0  0  0  0  0  0  0
    6.1465   -1.4739    0.0000 C   0  0  0  0  0  0  0  0  0  0  0  0
    4.5223   -1.7643    0.0000 C   0  0  0  0  0  0  0  0  0  0  0  0
    2.8073    0.0035    0.0000 C   0  0  0  0  0  0  0  0  0  0  0  0
    3.7102   -1.9095    0.0000 C   0  0  0  0  0  0  0  0  0  0  0  0
    2.1245   -0.4595    0.0000 C   0  0  0  0  0  0  0  0  0  0  0  0
    5.3632    0.5635    0.0000 C   0  0  0  0  0  0  0  0  0  0  0  0
    6.7071    0.0780    0.0000 C   0  0  0  0  0  0  0  0  0  0  0  0
    4.5511    0.4183    0.0000 C   0  0  0  0  0  0  0  0  0  0  0  0
    5.8950   -0.0672    0.0000 C   0  0  0  0  0  0  0  0  0  0  0  0
    7.2390   -0.5527    0.0000 C   0  0  0  0  0  0  0  0  0  0  0  0
    5.6147   -0.8432    0.0000 C   0  0  0  0  0  0  0  0  0  0  0  0
    4.8026   -0.9884    0.0000 C   0  0  0  0  0  0  0  0  0  0  0  0
    3.4587   -0.5029    0.0000 C   0  0  0  0  0  0  0  0  0  0  0  0
    4.2708   -0.3577    0.0000 C   0  0  0  0  0  0  0  0  0  0  0  0
    3.1784   -1.2788    0.0000 C   0  0  0  0  0  0  0  0  0  0  0  0
    2.3538   -1.2520    0.0000 C   0  0  0  0  0  0  0  0  0  0  0  0
    8.0511   -0.4075    0.0000 O   0  0  0  0  0  0  0  0  0  0  0  0
    2.4133   -2.0748    0.0000 O   0  0  0  0  0  0  0  0  0  0  0  0
  4  1  3  0
  6  5  1  0
  9  7  1  0
 10  8  1  0
 13  2  1  6
 13 11  1  0
 14 11  1  0
 14 12  1  0
 15  5  1  0
 15 12  1  0
 16  6  1  0
 16 14  2  0
 17  7  1  1
 17 16  1  0
 18  8  1  1
 19 13  1  6
 19 17  1  0
 19 18  1  0
 20  3  1  1
 20  9  1  0
 20 18  1  0
 21  4  1  0
 21 10  1  0
 21 20  1  0
 22 15  2  0
 21 23  1  1
M  END
$$$$
