
     RDKit          2D

 18 20  0  0  1  0  0  0  0  0999 V2000
    2.9397    6.7749    0.0000 C   0  0  0  0  0  0  0  0  0  0  0  0
    2.2253    6.3624    0.0000 C   0  0  0  0  0  0  0  0  0  0  0  0
    3.3522    1.1104    0.0000 C   0  0  0  0  0  0  0  0  0  0  0  0
    3.3522    1.9354    0.0000 C   0  0  0  0  0  0  0  0  0  0  0  0
    2.6378    0.6979    0.0000 C   0  0  0  0  0  0  0  0  0  0  0  0
    1.1387    2.1903    0.0000 C   0  0  0  0  0  0  0  0  0  0  0  0
    0.6537    1.5229    0.0000 C   0  0  0  0  0  0  0  0  0  0  0  0
    3.0503    3.8874    0.0000 C   0  0  0  0  0  0  0  0  0  0  0  0
    1.5108    4.2999    0.0000 C   0  0  0  0  0  0  0  0  0  0  0  0
    2.2253    3.8874    0.0000 C   0  0  0  0  0  0  0  0  0  0  0  0
    2.6378    2.3479    0.0000 C   0  0  0  0  0  0  0  0  0  0  0  0
    1.9233    1.9354    0.0000 C   0  0  0  0  0  0  0  0  0  0  0  0
    2.6378    3.1729    0.0000 C   0  0  0  0  0  0  0  0  0  0  0  0
    1.9233    1.1104    0.0000 C   0  0  0  0  0  0  0  0  0  0  0  0
    2.2253    5.5374    0.0000 C   0  0  0  0  0  0  0  0  0  0  0  0
    1.5108    5.1249    0.0000 N   0  0  0  0  0  0  0  0  0  0  0  0
    2.9397    5.1249    0.0000 O   0  0  0  0  0  0  0  0  0  0  0  0
    1.1387    0.8555    0.0000 O   0  0  0  0  0  0  0  0  0  0  0  0
  2  1  1  0
  4  3  2  0
  5  3  1  0
  7  6  1  0
 10  8  1  0
 10  9  1  6
 11  4  1  0
 12  6  1  0
 12 11  2  0
 13  8  1  0
 13 10  1  0
 13 11  1  1
 14  5  2  0
 14 12  1  0
 15  2  1  0
 16  9  1  0
 16 15  2  3
 17 15  1  0
 18  7  1  0
 18 14  1  0
M  END
$$$$
