
     RDKit          2D

 30 33  0  0  0  0  0  0  0  0999 V2000
   -2.8563   -1.5683    0.0000 C   0  0  0  0  0  0  0  0  0  0  0  0
   -2.8563   -2.3933    0.0000 C   0  0  0  0  0  0  0  0  0  0  0  0
   -2.1418   -2.8058    0.0000 C   0  0  0  0  0  0  0  0  0  0  0  0
   -1.4273   -2.3933    0.0000 N   0  0  0  0  0  0  0  0  0  0  0  0
   -1.4273   -1.5683    0.0000 C   0  0  0  0  0  0  0  0  0  0  0  0
   -2.1418   -1.1558    0.0000 C   0  0  0  0  0  0  0  0  0  0  0  0
   -0.7018   -1.1493    0.0000 N   0  0  0  0  0  0  0  0  0  0  0  0
    0.0083   -1.5593    0.0000 C   0  0  0  0  0  0  0  0  0  0  0  0
    0.0085   -2.3930    0.0000 C   0  0  0  0  0  0  0  0  0  0  0  0
    0.7231   -2.8054    0.0000 C   0  0  0  0  0  0  0  0  0  0  0  0
    1.4375   -2.3926    0.0000 C   0  0  0  0  0  0  0  0  0  0  0  0
    1.4372   -1.5588    0.0000 C   0  0  0  0  0  0  0  0  0  0  0  0
    0.7226   -1.1465    0.0000 C   0  0  0  0  0  0  0  0  0  0  0  0
    2.1517   -1.1463    0.0000 C   0  0  0  0  0  0  0  0  0  0  0  0
    1.7392   -0.4318    0.0000 F   0  0  0  0  0  0  0  0  0  0  0  0
    2.5642   -1.8608    0.0000 F   0  0  0  0  0  0  0  0  0  0  0  0
    2.8661   -0.7338    0.0000 F   0  0  0  0  0  0  0  0  0  0  0  0
   -2.1418   -0.3308    0.0000 C   0  0  0  0  0  0  0  0  0  0  0  0
   -1.4373    0.0760    0.0000 O   0  0  0  0  0  0  0  0  0  0  0  0
   -2.8661    0.0874    0.0000 O   0  0  0  0  0  0  0  0  0  0  0  0
   -1.4373    0.9010    0.0000 C   0  0  0  0  0  0  0  0  0  0  0  0
   -0.7782    1.3801    0.0000 C   0  0  0  0  0  0  0  0  0  0  0  0
   -1.0301    2.1550    0.0000 C   0  0  0  0  0  0  0  0  0  0  0  0
   -1.8451    2.1549    0.0000 C   0  0  0  0  0  0  0  0  0  0  0  0
   -2.0967    1.3798    0.0000 O   0  0  0  0  0  0  0  0  0  0  0  0
    0.0288    1.2088    0.0000 C   0  0  0  0  0  0  0  0  0  0  0  0
    0.5806    1.8220    0.0000 C   0  0  0  0  0  0  0  0  0  0  0  0
    0.3287    2.5969    0.0000 C   0  0  0  0  0  0  0  0  0  0  0  0
   -0.4782    2.7682    0.0000 C   0  0  0  0  0  0  0  0  0  0  0  0
   -2.3178    2.8058    0.0000 O   0  0  0  0  0  0  0  0  0  0  0  0
  1  2  2  0
  2  3  1  0
  3  4  2  0
  4  5  1  0
  5  6  2  0
  1  6  1  0
  5  7  1  0
  7  8  1  0
  8  9  2  0
  9 10  1  0
 10 11  2  0
 11 12  1  0
 12 13  2  0
  8 13  1  0
 12 14  1  0
 14 15  1  0
 14 16  1  0
 14 17  1  0
  6 18  1  0
 18 19  1  0
 18 20  2  0
 19 21  1  0
 21 22  1  0
 22 23  2  0
 23 24  1  0
 24 25  1  0
 21 25  1  0
 22 26  1  0
 26 27  2  0
 27 28  1  0
 28 29  2  0
 23 29  1  0
 24 30  2  0
M  END
$$$$
