9913
     RDKit          2D

 22 23  0  0  1  0  0  0  0  0999 V2000
    7.2204   -0.4333    0.0000 O   0  0  0  0  0  0  0  0  0  0  0  0
    4.1106    0.2124    0.0000 O   0  0  0  0  0  0  0  0  0  0  0  0
    2.6817   -2.2625    0.0000 O   0  0  0  0  0  0  0  0  0  0  0  0
    9.0529    2.8736    0.0000 O   0  0  0  0  0  0  0  0  0  0  0  0
    5.6058   -0.7735    0.0000 N   0  0  0  0  0  0  0  0  0  0  0  0
    7.7330    1.1351    0.0000 N   0  0  0  0  0  0  0  0  0  0  0  0
    4.1106   -2.2625    0.0000 N   0  0  0  0  0  0  0  0  0  0  0  0
    3.3961   -1.0250    0.0000 N   0  0  0  0  0  0  0  0  0  0  0  0
    5.6058   -2.1014    0.0000 N   0  0  0  0  0  0  0  0  0  0  0  0
    6.6694    0.1807    0.0000 C   0  0  0  0  0  0  0  0  0  0  0  0
    5.8621    0.0106    0.0000 C   0  0  0  0  0  0  0  0  0  0  0  0
    6.9257    0.9649    0.0000 C   0  0  0  0  0  0  0  0  0  0  0  0
    4.8252   -1.0250    0.0000 C   0  0  0  0  0  0  0  0  0  0  0  0
    4.8252   -1.8500    0.0000 C   0  0  0  0  0  0  0  0  0  0  0  0
    6.0873   -1.4375    0.0000 C   0  0  0  0  0  0  0  0  0  0  0  0
    7.9893    1.9193    0.0000 C   0  0  0  0  0  0  0  0  0  0  0  0
    4.1106   -0.6125    0.0000 C   0  0  0  0  0  0  0  0  0  0  0  0
    3.3961   -1.8500    0.0000 C   0  0  0  0  0  0  0  0  0  0  0  0
    8.2840    0.5209    0.0000 C   0  0  0  0  0  0  0  0  0  0  0  0
    8.7966    2.0894    0.0000 C   0  0  0  0  0  0  0  0  0  0  0  0
    4.1106   -3.0876    0.0000 C   0  0  0  0  0  0  0  0  0  0  0  0
    2.6817   -0.6125    0.0000 C   0  0  0  0  0  0  0  0  0  0  0  0
  1 10  1  0
  2 17  2  0
  3 18  2  0
  4 20  1  0
  5 11  1  0
  5 13  1  0
  5 15  1  0
  6 12  1  0
  6 16  1  0
  6 19  1  0
  7 14  1  0
  7 18  1  0
  7 21  1  0
  8 17  1  0
  8 18  1  0
  8 22  1  0
  9 14  1  0
  9 15  2  0
 10 11  1  0
 10 12  1  0
 13 14  2  0
 13 17  1  0
 16 20  1  0
M  END
$$$$
