
     RDKit          2D

 31 34  0  0  1  0  0  0  0  0999 V2000
   -0.6077   10.9526    0.0000 C   0  0  0  0  0  0  0  0  0  0  0  0
    0.1067    9.7151    0.0000 C   0  0  0  0  0  0  0  0  0  0  0  0
    0.8211   13.4276    0.0000 C   0  0  0  0  0  0  0  0  0  0  0  0
   -1.3222   10.5401    0.0000 C   0  0  0  0  0  0  0  0  0  0  0  0
   -0.6077    9.3026    0.0000 C   0  0  0  0  0  0  0  0  0  0  0  0
    0.1067   13.0151    0.0000 C   0  0  0  0  0  0  0  0  0  0  0  0
   -2.7041    7.9927    0.0000 C   0  0  0  0  0  0  0  0  0  0  0  0
   -2.4492    7.2081    0.0000 C   0  0  0  0  0  0  0  0  0  0  0  0
    0.8211   10.9526    0.0000 C   0  0  0  0  0  0  0  0  0  0  0  0
    1.5356   12.1901    0.0000 C   0  0  0  0  0  0  0  0  0  0  0  0
    4.3935   13.0151    0.0000 C   0  0  0  0  0  0  0  0  0  0  0  0
   -1.3692    7.9927    0.0000 C   0  0  0  0  0  0  0  0  0  0  0  0
    0.1067   10.5401    0.0000 C   0  0  0  0  0  0  0  0  0  0  0  0
    1.5356   13.0151    0.0000 C   0  0  0  0  0  0  0  0  0  0  0  0
    0.8211   11.7776    0.0000 C   0  0  0  0  0  0  0  0  0  0  0  0
   -1.3222    9.7151    0.0000 C   0  0  0  0  0  0  0  0  0  0  0  0
   -2.0367    8.4776    0.0000 C   0  0  0  0  0  0  0  0  0  0  0  0
    0.1067   12.1901    0.0000 C   0  0  0  0  0  0  0  0  0  0  0  0
    3.6790   13.4276    0.0000 C   0  0  0  0  0  0  0  0  0  0  0  0
    3.6790   14.2526    0.0000 C   0  0  0  0  0  0  0  0  0  0  0  0
    2.9645   14.6651    0.0000 C   0  0  0  0  0  0  0  0  0  0  0  0
    2.2501   14.2526    0.0000 C   0  0  0  0  0  0  0  0  0  0  0  0
    2.2501   13.4276    0.0000 C   0  0  0  0  0  0  0  0  0  0  0  0
   -0.6077   11.7776    0.0000 Cl  0  0  0  0  0  0  0  0  0  0  0  0
    5.1080   13.4276    0.0000 O   0  0  0  0  0  0  0  0  0  0  0  0
    4.3935   14.6651    0.0000 O   0  0  0  0  0  0  0  0  0  0  0  0
    2.9645   15.4901    0.0000 O   0  0  0  0  0  0  0  0  0  0  0  0
    1.5356   14.6651    0.0000 O   0  0  0  0  0  0  0  0  0  0  0  0
   -1.6242    7.2081    0.0000 O   0  0  0  0  0  0  0  0  0  0  0  0
   -2.0367    9.3026    0.0000 O   0  0  0  0  0  0  0  0  0  0  0  0
    2.9645   13.0151    0.0000 O   0  0  0  0  0  0  0  0  0  0  0  0
  4  1  2  0
  5  2  1  0
  6  3  2  0
  8  7  1  0
 13  1  1  0
 13  2  2  0
 13  9  1  0
 14  3  1  0
 14 10  2  0
 15  9  1  0
 15 10  1  0
 16  4  1  0
 16  5  2  0
 17  7  1  0
 17 12  1  0
 18  6  1  0
 18 15  2  0
 19 11  1  1
 20 19  1  0
 21 20  1  0
 22 21  1  0
 23 14  1  1
 23 22  1  0
 24 18  1  0
 25 11  1  0
 20 26  1  6
 21 27  1  1
 22 28  1  6
 29  8  1  0
 29 12  1  0
 30 16  1  0
 17 30  1  6
 31 19  1  0
 31 23  1  0
M  END
$$$$
