
     RDKit          2D

 23 23  0  0  0  0  0  0  0  0999 V2000
   -0.6699    0.9873    0.0000 O   0  0  0  0  0  0  0  0  0  0  0  0
   -0.5024    0.1851    0.0000 C   0  0  0  0  0  0  0  0  0  0  0  0
   -1.1107   -0.3702    0.0000 O   0  0  0  0  0  0  0  0  0  0  0  0
    0.2820   -0.0704    0.0000 C   0  0  0  0  0  0  0  0  0  0  0  0
    0.8902    0.4760    0.0000 N   0  0  0  0  0  0  0  0  0  0  0  0
    0.7228    1.2870    0.0000 C   0  0  0  0  0  0  0  0  0  0  0  0
    1.3310    1.8334    0.0000 C   0  0  0  0  0  0  0  0  0  0  0  0
    2.1156    1.5867    0.0000 O   0  0  0  0  0  0  0  0  0  0  0  0
    1.1635    2.6445    0.0000 O   0  0  0  0  0  0  0  0  0  0  0  0
    1.6749    0.2292    0.0000 C   0  0  0  0  0  0  0  0  0  0  0  0
    1.9305   -0.5553    0.0000 C   0  0  0  0  0  0  0  0  0  0  0  0
    1.4456   -1.2252    0.0000 C   0  0  0  0  0  0  0  0  0  0  0  0
    0.9609   -1.8864    0.0000 N   0  0  0  0  0  0  0  0  0  0  0  0
    2.7590   -0.5553    0.0000 C   0  0  0  0  0  0  0  0  0  0  0  0
    3.2350   -1.2252    0.0000 C   0  0  0  0  0  0  0  0  0  0  0  0
    2.9001   -1.9745    0.0000 C   0  0  0  0  0  0  0  0  0  0  0  0
    2.0803   -2.0627    0.0000 O   0  0  0  0  0  0  0  0  0  0  0  0
    3.3849   -2.6445    0.0000 O   0  0  0  0  0  0  0  0  0  0  0  0
    3.0147    0.2292    0.0000 C   0  0  0  0  0  0  0  0  0  0  0  0
    3.7992    0.4760    0.0000 C   0  0  0  0  0  0  0  0  0  0  0  0
    4.4075   -0.0704    0.0000 O   0  0  0  0  0  0  0  0  0  0  0  0
    3.9667    1.2870    0.0000 O   0  0  0  0  0  0  0  0  0  0  0  0
    2.3448    0.7140    0.0000 S   0  0  0  0  0  0  0  0  0  0  0  0
  1  2  2  0
  2  3  1  0
  2  4  1  0
  4  5  1  0
  5  6  1  0
  5 10  1  0
  6  7  1  0
  7  8  2  0
  7  9  1  0
 10 11  2  0
 10 23  1  0
 11 12  1  0
 11 14  1  0
 12 13  3  0
 14 15  1  0
 14 19  2  0
 15 16  1  0
 16 17  2  0
 16 18  1  0
 19 20  1  0
 19 23  1  0
 20 21  2  0
 20 22  1  0
M  CHG  4   3  -1   9  -1  18  -1  22  -1
M  END
$$$$
