
     RDKit          2D

 26 27  0  0  0  0  0  0  0  0999 V2000
    2.7221    6.5812    0.0000 F   0  0  0  0  0  0  0  0  0  0  0  0
    0.5787    2.8687    0.0000 O   0  0  0  0  0  0  0  0  0  0  0  0
   -0.8503    1.2186    0.0000 O   0  0  0  0  0  0  0  0  0  0  0  0
    1.2931    4.9312    0.0000 O   0  0  0  0  0  0  0  0  0  0  0  0
   -1.5647   -5.7939    0.0000 N   0  0  0  0  0  0  0  0  0  0  0  0
   -1.5647   -0.0188    0.0000 N   0  0  0  0  0  0  0  0  0  0  0  0
   -0.1357    2.4562    0.0000 C   0  0  0  0  0  0  0  0  0  0  0  0
    0.5787    3.6937    0.0000 C   0  0  0  0  0  0  0  0  0  0  0  0
   -0.1357    1.6311    0.0000 C   0  0  0  0  0  0  0  0  0  0  0  0
    1.2931    4.1062    0.0000 C   0  0  0  0  0  0  0  0  0  0  0  0
   -1.5647   -3.3189    0.0000 C   0  0  0  0  0  0  0  0  0  0  0  0
   -0.8503   -1.2563    0.0000 C   0  0  0  0  0  0  0  0  0  0  0  0
   -1.5647   -4.9689    0.0000 C   0  0  0  0  0  0  0  0  0  0  0  0
   -0.8503    0.3936    0.0000 C   0  0  0  0  0  0  0  0  0  0  0  0
   -1.5647   -2.4939    0.0000 C   0  0  0  0  0  0  0  0  0  0  0  0
   -2.2792   -3.7314    0.0000 C   0  0  0  0  0  0  0  0  0  0  0  0
   -0.8503   -3.7314    0.0000 C   0  0  0  0  0  0  0  0  0  0  0  0
   -0.8503   -2.0813    0.0000 C   0  0  0  0  0  0  0  0  0  0  0  0
   -2.2792   -4.5564    0.0000 C   0  0  0  0  0  0  0  0  0  0  0  0
   -0.8503   -4.5564    0.0000 C   0  0  0  0  0  0  0  0  0  0  0  0
   -0.1357   -0.8438    0.0000 C   0  0  0  0  0  0  0  0  0  0  0  0
   -0.1357   -0.0188    0.0000 C   0  0  0  0  0  0  0  0  0  0  0  0
    2.0077    5.3437    0.0000 C   0  0  0  0  0  0  0  0  0  0  0  0
   -1.5647   -0.8438    0.0000 C   0  0  0  0  0  0  0  0  0  0  0  0
    2.0077    6.1687    0.0000 C   0  0  0  0  0  0  0  0  0  0  0  0
   -2.2792   -6.2064    0.0000 C   0  0  0  0  0  0  0  0  0  0  0  0
  1 25  1  0
  2  7  1  0
  2  8  1  0
  3  9  1  0
  3 14  1  0
  4 10  1  0
  4 23  1  0
  5 13  1  0
  5 26  1  0
  6 14  2  0
  6 24  1  0
  7  9  1  0
  8 10  1  0
 11 15  1  0
 11 16  2  0
 11 17  1  0
 12 18  1  0
 12 21  1  0
 12 24  2  0
 13 19  2  0
 13 20  1  0
 14 22  1  0
 15 18  2  0
 16 19  1  0
 17 20  2  0
 21 22  2  0
 23 25  1  0
M  ISO  1   1  18
M  END
$$$$
