
     RDKit          2D

 33 33  0  0  0  0  0  0  0  0999 V2000
    0.7111    1.2376    0.0000 C   0  0  0  0  0  0  0  0  0  0  0  0
    1.4275    1.6500    0.0000 N   0  0  0  0  0  0  0  0  0  0  0  0
   -0.0041    1.6518    0.0000 O   0  0  0  0  0  0  0  0  0  0  0  0
    2.1385    1.2376    0.0000 C   0  0  0  0  0  0  0  0  0  0  0  0
    2.8524    1.6509    0.0000 C   0  0  0  0  0  0  0  0  0  0  0  0
    3.5664    1.2376    0.0000 C   0  0  0  0  0  0  0  0  0  0  0  0
    4.2803    1.6509    0.0000 O   0  0  0  0  0  0  0  0  0  0  0  0
    2.8524    2.4776    0.0000 O   0  0  0  0  0  0  0  0  0  0  0  0
    0.7105    0.4151    0.0000 C   0  0  0  0  0  0  0  0  0  0  0  0
    1.4287    0.0018    0.0000 C   0  0  0  0  0  0  0  0  0  0  0  0
    1.4287   -0.8248    0.0000 C   0  0  0  0  0  0  0  0  0  0  0  0
    0.7110   -1.2381    0.0000 C   0  0  0  0  0  0  0  0  0  0  0  0
   -0.0023   -0.8248    0.0000 C   0  0  0  0  0  0  0  0  0  0  0  0
   -0.0023    0.0018    0.0000 C   0  0  0  0  0  0  0  0  0  0  0  0
    0.7100   -2.0647    0.0000 I   0  0  0  0  0  0  0  0  0  0  0  0
   -0.7186    0.4146    0.0000 I   0  0  0  0  0  0  0  0  0  0  0  0
    2.1444    0.4154    0.0000 I   0  0  0  0  0  0  0  0  0  0  0  0
   -0.7186   -1.2376    0.0000 C   0  0  0  0  0  0  0  0  0  0  0  0
   -1.4312   -0.8206    0.0000 N   0  0  0  0  0  0  0  0  0  0  0  0
   -2.1451   -1.2340    0.0000 C   0  0  0  0  0  0  0  0  0  0  0  0
   -2.8591   -0.8206    0.0000 C   0  0  0  0  0  0  0  0  0  0  0  0
   -3.5730   -1.2340    0.0000 C   0  0  0  0  0  0  0  0  0  0  0  0
   -4.2870   -0.8206    0.0000 O   0  0  0  0  0  0  0  0  0  0  0  0
   -0.6800   -2.0643    0.0000 O   0  0  0  0  0  0  0  0  0  0  0  0
   -2.8591    0.0059    0.0000 O   0  0  0  0  0  0  0  0  0  0  0  0
    2.1426   -1.2381    0.0000 N   0  0  0  0  0  0  0  0  0  0  0  0
    2.8566   -0.8290    0.0000 C   0  0  0  0  0  0  0  0  0  0  0  0
    3.5705   -1.2423    0.0000 C   0  0  0  0  0  0  0  0  0  0  0  0
    2.1384   -2.0607    0.0000 C   0  0  0  0  0  0  0  0  0  0  0  0
    1.4205   -2.4704    0.0000 O   0  0  0  0  0  0  0  0  0  0  0  0
    2.8523   -2.4776    0.0000 C   0  0  0  0  0  0  0  0  0  0  0  0
    4.2870   -0.8298    0.0000 O   0  0  0  0  0  0  0  0  0  0  0  0
    3.5764   -2.0644    0.0000 O   0  0  0  0  0  0  0  0  0  0  0  0
  6  7  1  0
  5  8  1  0
  9  1  1  0
  1  2  1  0
  1  3  2  0
  2  4  1  0
  4  5  1  0
 11 12  1  0
 21 25  1  0
 10 17  1  0
 11 26  1  0
 12 13  2  0
 26 27  1  0
 13 18  1  0
 27 28  1  0
 13 14  1  0
 18 19  1  0
 14  9  2  0
 19 20  1  0
  9 10  1  0
 20 21  1  0
 21 22  1  0
 12 15  1  0
 22 23  1  0
 10 11  2  0
 18 24  2  0
 14 16  1  0
 26 29  1  0
 29 30  2  0
 29 31  1  0
  5  6  1  0
 28 32  1  0
 31 33  1  0
M  END
$$$$
