
     RDKit          2D

 16 16  0  0  0  0  0  0  0  0999 V2000
   -1.7424    0.1259    0.0000 C   0  0  0  0  0  0  0  0  0  0  0  0
   -2.2825    0.7496    0.0000 C   0  0  0  0  0  0  0  0  0  0  0  0
    0.9579   -0.8094    0.0000 C   0  0  0  0  0  0  0  0  0  0  0  0
    2.1181    0.0934    0.0000 C   0  0  0  0  0  0  0  0  0  0  0  0
    3.0927   -0.8187    0.0000 C   0  0  0  0  0  0  0  0  0  0  0  0
    1.7680   -0.6535    0.0000 C   0  0  0  0  0  0  0  0  0  0  0  0
    0.4178   -0.1858    0.0000 C   0  0  0  0  0  0  0  0  0  0  0  0
   -0.9323    0.2818    0.0000 C   0  0  0  0  0  0  0  0  0  0  0  0
    0.6879    0.5937    0.0000 C   0  0  0  0  0  0  0  0  0  0  0  0
   -3.0927    0.5937    0.0000 N   0  0  0  0  0  0  0  0  0  0  0  0
    2.9368   -0.0085    0.0000 N   0  0  0  0  0  0  0  0  0  0  0  0
    2.3704   -1.2173    0.0000 N   0  0  0  0  0  0  0  0  0  0  0  0
   -0.3922   -0.3417    0.0000 N   0  0  0  0  0  0  0  0  0  0  0  0
   -0.6623    1.0614    0.0000 O   0  0  0  0  0  0  0  0  0  0  0  0
    0.1478    1.2173    0.0000 O   0  0  0  0  0  0  0  0  0  0  0  0
    1.4980    0.7496    0.0000 O   0  0  0  0  0  0  0  0  0  0  0  0
  2  1  1  0
  6  3  1  0
  6  4  2  0
  7  3  1  6
  8  1  1  0
  9  7  1  0
 10  2  1  0
 11  4  1  0
 11  5  2  0
 12  5  1  0
 12  6  1  0
  7 13  1  0
 13  8  1  0
 14  8  2  0
 15  9  2  0
 16  9  1  0
M  CHG  2  13  -1  16  -1
M  END
$$$$
