9835049
     RDKit          2D

 17 18  0  0  1  0  0  0  0  0999 V2000
    9.2605   -1.0149    0.0000 S   0  0  0  0  0  0  0  0  0  0  0  0
    8.4355   -1.0149    0.0000 O   0  0  0  0  0  0  0  0  0  0  0  0
    8.9509    0.9089    0.0000 O   0  0  0  0  0  0  0  0  0  0  0  0
    4.1360    1.8149    0.0000 O   0  0  0  0  0  0  0  0  0  0  0  0
   10.0855   -1.0149    0.0000 O   0  0  0  0  0  0  0  0  0  0  0  0
    9.2605   -1.8399    0.0000 O   0  0  0  0  0  0  0  0  0  0  0  0
    9.2605   -0.1899    0.0000 O   0  0  0  0  0  0  0  0  0  0  0  0
    6.7251    1.1224    0.0000 N   0  0  0  0  0  0  0  0  0  0  0  0
    8.0230   -0.3005    0.0000 N   0  0  0  0  0  0  0  0  0  0  0  0
    3.1800    0.7531    0.0000 N   0  0  0  0  0  0  0  0  0  0  0  0
    6.5116    0.3255    0.0000 C   0  0  0  0  0  0  0  0  0  0  0  0
    6.1174    1.9331    0.0000 C   0  0  0  0  0  0  0  0  0  0  0  0
    5.2451   -0.7000    0.0000 C   0  0  0  0  0  0  0  0  0  0  0  0
    4.5777    0.4560    0.0000 C   0  0  0  0  0  0  0  0  0  0  0  0
    4.4914   -0.3645    0.0000 C   0  0  0  0  0  0  0  0  0  0  0  0
    8.2365    0.4964    0.0000 C   0  0  0  0  0  0  0  0  0  0  0  0
    3.9645    1.0080    0.0000 C   0  0  0  0  0  0  0  0  0  0  0  0
  1  2  1  0
  1  5  1  0
  1  6  2  0
  1  7  2  0
  2  9  1  0
  3 16  2  0
  4 17  2  0
  8 12  1  0
  8 14  1  0
  8 16  1  0
  9 11  1  0
  9 16  1  0
 10 17  1  0
 11 12  1  0
 11 13  1  6
 13 15  1  0
 14 15  1  0
 14 17  1  1
M  END
$$$$
