
     RDKit          2D

 29 34  0  0  0  0  0  0  0  0999 V2000
    2.0466   -1.2228    0.0000 C   0  0  0  0  0  0  0  0  0  0  0  0
    4.3868    1.0276    0.0000 C   0  0  0  0  0  0  0  0  0  0  0  0
    0.8799    1.1165    0.0000 C   0  0  0  0  0  0  0  0  0  0  0  0
    0.5769    1.8564    0.0000 C   0  0  0  0  0  0  0  0  0  0  0  0
    4.6979    1.7920    0.0000 C   0  0  0  0  0  0  0  0  0  0  0  0
    1.3281    0.8602    0.0000 C   0  0  0  0  0  0  0  0  0  0  0  0
    1.1841   -0.0271    0.0000 C   0  0  0  0  0  0  0  0  0  0  0  0
    4.1246    6.0423    0.0000 C   0  0  0  0  0  0  0  0  0  0  0  0
    2.9907    5.1736    0.0000 C   0  0  0  0  0  0  0  0  0  0  0  0
    4.3099    4.6260    0.0000 C   0  0  0  0  0  0  0  0  0  0  0  0
    3.6231    6.6969    0.0000 C   0  0  0  0  0  0  0  0  0  0  0  0
    2.4892    5.8284    0.0000 C   0  0  0  0  0  0  0  0  0  0  0  0
    3.9937    3.8644    0.0000 C   0  0  0  0  0  0  0  0  0  0  0  0
    3.2627    0.1912    0.0000 C   0  0  0  0  0  0  0  0  0  0  0  0
    3.5617    0.9405    0.0000 C   0  0  0  0  0  0  0  0  0  0  0  0
    1.8504    0.9670    0.0000 C   0  0  0  0  0  0  0  0  0  0  0  0
    2.4480    0.1773    0.0000 C   0  0  0  0  0  0  0  0  0  0  0  0
    1.1358    2.4576    0.0000 C   0  0  0  0  0  0  0  0  0  0  0  0
    4.1790    2.4480    0.0000 C   0  0  0  0  0  0  0  0  0  0  0  0
    3.0422    1.5867    0.0000 C   0  0  0  0  0  0  0  0  0  0  0  0
    3.3321    2.3506    0.0000 C   0  0  0  0  0  0  0  0  0  0  0  0
    1.9574    2.2939    0.0000 C   0  0  0  0  0  0  0  0  0  0  0  0
    2.1644    1.4542    0.0000 C   0  0  0  0  0  0  0  0  0  0  0  0
    1.9072   -0.4099    0.0000 N   0  0  0  0  0  0  0  0  0  0  0  0
    3.8084    5.2807    0.0000 N   0  0  0  0  0  0  0  0  0  0  0  0
    0.8822    3.2423    0.0000 O   0  0  0  0  0  0  0  0  0  0  0  0
    2.8054    6.5900    0.0000 O   0  0  0  0  0  0  0  0  0  0  0  0
    4.4952    3.2097    0.0000 O   0  0  0  0  0  0  0  0  0  0  0  0
    2.6210    2.7949    0.0000 O   0  0  0  0  0  0  0  0  0  0  0  0
  4  3  2  0
  5  2  2  0
  7  6  1  0
 11  8  1  0
 12  9  1  0
 13 10  1  0
 15  2  1  0
 15 14  1  0
 16  3  1  6
 17 14  1  1
 17 16  1  0
 18  4  1  0
 19  5  1  0
 20 15  2  0
 21 19  2  0
 21 20  1  0
 22 18  1  0
 23  6  1  1
 23 16  1  0
 23 20  1  0
 23 22  1  0
 24  1  1  0
 24  7  1  0
 24 17  1  0
 25  8  1  0
 25  9  1  0
 25 10  1  0
 18 26  1  6
 27 11  1  0
 27 12  1  0
 28 13  1  0
 28 19  1  0
 29 21  1  0
 22 29  1  6
M  END
$$$$
