
     RDKit          2D

 10  9  0  0  0  0  0  0  0  0999 V2000
    0.0000   -1.4842    0.0000 C   0  0  0  0  0  0  0  0  0  0  0  0
    0.0000   -0.0552    0.0000 C   0  0  0  0  0  0  0  0  0  0  0  0
    0.4125   -0.7697    0.0000 C   0  0  0  0  0  0  0  0  0  0  0  0
    0.4125   -2.1986    0.0000 O   0  0  0  0  0  0  0  0  0  0  0  0
    1.2375   -0.7697    0.0000 O   0  0  0  0  0  0  0  0  0  0  0  0
    0.7144    1.7861    0.0000 O   0  0  0  0  0  0  0  0  0  0  0  0
   -0.7144    0.9611    0.0000 O   0  0  0  0  0  0  0  0  0  0  0  0
   -0.4125    2.0881    0.0000 O   0  0  0  0  0  0  0  0  0  0  0  0
    0.4125    0.6592    0.0000 O   0  0  0  0  0  0  0  0  0  0  0  0
    0.0000    1.3736    0.0000 P   0  0  0  0  0  0  0  0  0  0  0  0
  3  1  1  0
  3  2  1  0
  4  1  1  0
  5  3  1  0
  9  2  1  0
 10  6  1  0
 10  7  1  0
 10  8  2  0
 10  9  1  0
M  CHG  2   6  -1   7  -1
M  END
$$$$
