
     RDKit          2D

 54 59  0  0  0  0  0  0  0  0999 V2000
    5.7366    3.5773    0.0000 O   0  0  0  0  0  0  0  0  0  0  0  0
   -5.7238   -3.5902    0.0000 O   0  0  0  0  0  0  0  0  0  0  0  0
    3.6354    0.6768    0.0000 O   0  0  0  0  0  0  0  0  0  0  0  0
   -3.5967   -0.6896    0.0000 O   0  0  0  0  0  0  0  0  0  0  0  0
    5.0405    0.6768    0.0000 O   0  0  0  0  0  0  0  0  0  0  0  0
   -5.0277   -0.6768    0.0000 O   0  0  0  0  0  0  0  0  0  0  0  0
    4.3315    3.5773    0.0000 N   0  0  0  0  0  0  0  0  0  0  0  0
   -4.3186   -3.5902    0.0000 N   0  0  0  0  0  0  0  0  0  0  0  0
   -2.5009   -2.3011    0.0000 N   0  0  0  0  0  0  0  0  0  0  0  0
    2.5137    2.2495    0.0000 N   0  0  0  0  0  0  0  0  0  0  0  0
   -3.7772   -1.8885    0.0000 N   0  0  0  0  0  0  0  0  0  0  0  0
    3.7900    1.8757    0.0000 N   0  0  0  0  0  0  0  0  0  0  0  0
    4.3315    1.9273    0.0000 N   0  0  0  0  0  0  0  0  0  0  0  0
   -4.3058   -1.9273    0.0000 N   0  0  0  0  0  0  0  0  0  0  0  0
    3.5451    3.3325    0.0000 C   0  0  0  0  0  0  0  0  0  0  0  0
   -3.5323   -3.3325    0.0000 C   0  0  0  0  0  0  0  0  0  0  0  0
   -3.2872   -2.5460    0.0000 C   0  0  0  0  0  0  0  0  0  0  0  0
    3.3002    2.5460    0.0000 C   0  0  0  0  0  0  0  0  0  0  0  0
    5.0405    3.1648    0.0000 C   0  0  0  0  0  0  0  0  0  0  0  0
   -5.0277   -3.1648    0.0000 C   0  0  0  0  0  0  0  0  0  0  0  0
    5.0405    2.3398    0.0000 C   0  0  0  0  0  0  0  0  0  0  0  0
   -5.0277   -2.3398    0.0000 C   0  0  0  0  0  0  0  0  0  0  0  0
    3.0553    3.9898    0.0000 C   0  0  0  0  0  0  0  0  0  0  0  0
   -3.0295   -4.0028    0.0000 C   0  0  0  0  0  0  0  0  0  0  0  0
    4.3315    4.4024    0.0000 C   0  0  0  0  0  0  0  0  0  0  0  0
   -4.3186   -4.4153    0.0000 C   0  0  0  0  0  0  0  0  0  0  0  0
   -2.5009   -1.4760    0.0000 C   0  0  0  0  0  0  0  0  0  0  0  0
    2.5137    1.4244    0.0000 C   0  0  0  0  0  0  0  0  0  0  0  0
    3.5451    4.6603    0.0000 C   0  0  0  0  0  0  0  0  0  0  0  0
   -3.5323   -4.6603    0.0000 C   0  0  0  0  0  0  0  0  0  0  0  0
    5.7366    1.9273    0.0000 C   0  0  0  0  0  0  0  0  0  0  0  0
   -5.7367   -1.9273    0.0000 C   0  0  0  0  0  0  0  0  0  0  0  0
   -3.2872   -1.2181    0.0000 C   0  0  0  0  0  0  0  0  0  0  0  0
    3.3002    1.1796    0.0000 C   0  0  0  0  0  0  0  0  0  0  0  0
   -1.7919   -1.0634    0.0000 C   0  0  0  0  0  0  0  0  0  0  0  0
    1.8048    1.0120    0.0000 C   0  0  0  0  0  0  0  0  0  0  0  0
    4.3315    1.0892    0.0000 C   0  0  0  0  0  0  0  0  0  0  0  0
   -4.3058   -1.1022    0.0000 C   0  0  0  0  0  0  0  0  0  0  0  0
   -0.3480   -0.2255    0.0000 C   0  0  0  0  0  0  0  0  0  0  0  0
    0.3609    0.1869    0.0000 C   0  0  0  0  0  0  0  0  0  0  0  0
   -1.7919   -0.2255    0.0000 C   0  0  0  0  0  0  0  0  0  0  0  0
    1.8048    0.1869    0.0000 C   0  0  0  0  0  0  0  0  0  0  0  0
   -1.0829   -1.4760    0.0000 C   0  0  0  0  0  0  0  0  0  0  0  0
    1.1086    1.4244    0.0000 C   0  0  0  0  0  0  0  0  0  0  0  0
    6.4457    2.3398    0.0000 C   0  0  0  0  0  0  0  0  0  0  0  0
    5.7366    1.0892    0.0000 C   0  0  0  0  0  0  0  0  0  0  0  0
   -6.4457   -2.3398    0.0000 C   0  0  0  0  0  0  0  0  0  0  0  0
   -5.7367   -1.1022    0.0000 C   0  0  0  0  0  0  0  0  0  0  0  0
   -1.0829    0.1869    0.0000 C   0  0  0  0  0  0  0  0  0  0  0  0
    1.0699   -0.2255    0.0000 C   0  0  0  0  0  0  0  0  0  0  0  0
   -0.3480   -1.0634    0.0000 C   0  0  0  0  0  0  0  0  0  0  0  0
    0.3609    1.0120    0.0000 C   0  0  0  0  0  0  0  0  0  0  0  0
    3.6354   -0.1482    0.0000 C   0  0  0  0  0  0  0  0  0  0  0  0
   -3.5967    0.1354    0.0000 C   0  0  0  0  0  0  0  0  0  0  0  0
  1 19  2  0
  2 20  2  0
  3 37  1  0
  3 53  1  0
  4 38  1  0
  4 54  1  0
  5 37  2  0
  6 38  2  0
  7 15  1  0
  7 19  1  0
  7 25  1  0
  8 16  1  0
  8 20  1  0
  8 26  1  0
  9 17  1  0
  9 27  1  0
 10 18  1  0
 10 28  1  0
 11 17  2  0
 11 33  1  0
 12 18  2  0
 12 34  1  0
 21 13  1  6
 13 37  1  0
 22 14  1  6
 14 38  1  0
 15 18  1  6
 15 23  1  0
 16 17  1  6
 16 24  1  0
 19 21  1  0
 20 22  1  0
 21 31  1  0
 22 32  1  0
 23 29  1  0
 24 30  1  0
 25 29  1  0
 26 30  1  0
 27 33  2  0
 27 35  1  0
 28 34  2  0
 28 36  1  0
 31 45  1  0
 31 46  1  0
 32 47  1  0
 32 48  1  0
 35 41  2  0
 35 43  1  0
 36 42  2  0
 36 44  1  0
 39 40  1  0
 39 49  2  0
 39 51  1  0
 40 50  2  0
 40 52  1  0
 41 49  1  0
 42 50  1  0
 43 51  2  0
 44 52  2  0
M  END
$$$$
