
     RDKit          2D

 27 30  0  0  0  0  0  0  0  0999 V2000
   -1.1089   -0.3275    0.0000 C   0  0  0  0  0  0  0  0  0  0  0  0
    1.0410    0.8953    0.0000 C   0  0  0  0  0  0  0  0  0  0  0  0
   -1.1089   -1.1525    0.0000 C   0  0  0  0  0  0  0  0  0  0  0  0
    1.8272    1.1428    0.0000 C   0  0  0  0  0  0  0  0  0  0  0  0
   -0.3955    0.0848    0.0000 C   0  0  0  0  0  0  0  0  0  0  0  0
    0.3178   -0.3323    0.0000 C   0  0  0  0  0  0  0  0  0  0  0  0
    1.0312    0.0753    0.0000 C   0  0  0  0  0  0  0  0  0  0  0  0
   -1.8222    0.0848    0.0000 C   0  0  0  0  0  0  0  0  0  0  0  0
    0.3275    1.3175    0.0000 C   0  0  0  0  0  0  0  0  0  0  0  0
   -0.3906    0.9098    0.0000 C   0  0  0  0  0  0  0  0  0  0  0  0
    0.3130   -1.1574    0.0000 C   0  0  0  0  0  0  0  0  0  0  0  0
   -0.4002   -1.5651    0.0000 C   0  0  0  0  0  0  0  0  0  0  0  0
   -1.8222   -1.5651    0.0000 C   0  0  0  0  0  0  0  0  0  0  0  0
    1.8222    1.9727    0.0000 C   0  0  0  0  0  0  0  0  0  0  0  0
    2.3027    0.4731    0.0000 C   0  0  0  0  0  0  0  0  0  0  0  0
    1.8126   -0.1916    0.0000 C   0  0  0  0  0  0  0  0  0  0  0  0
   -2.5308   -0.3275    0.0000 C   0  0  0  0  0  0  0  0  0  0  0  0
   -2.5308   -1.1525    0.0000 C   0  0  0  0  0  0  0  0  0  0  0  0
    1.1040    2.3755    0.0000 O   0  0  0  0  0  0  0  0  0  0  0  0
   -3.2491   -1.5602    0.0000 O   0  0  0  0  0  0  0  0  0  0  0  0
    2.5405    1.5650    0.0000 O   0  0  0  0  0  0  0  0  0  0  0  0
   -1.1137    0.5022    0.0000 C   0  0  0  0  0  0  0  0  0  0  0  0
    1.0361    1.7252    0.0000 C   0  0  0  0  0  0  0  0  0  0  0  0
   -0.4052   -2.3901    0.0000 F   0  0  0  0  0  0  0  0  0  0  0  0
   -1.1040    1.3273    0.0000 O   0  0  0  0  0  0  0  0  0  0  0  0
    2.5308    2.3901    0.0000 C   0  0  0  0  0  0  0  0  0  0  0  0
    3.2491    1.9824    0.0000 O   0  0  0  0  0  0  0  0  0  0  0  0
  2  9  1  0
  3  1  1  0
  4  2  1  0
  5  1  1  0
  6  5  1  0
  7  6  1  0
  8  1  1  0
  9 10  1  0
  5 10  1  1
 11 12  1  0
 12  3  1  0
 13  3  2  0
 14  4  1  0
 15 16  1  0
  7 16  1  1
 17  8  2  0
 18 13  1  0
 19 14  2  0
 20 18  2  0
  4 21  1  6
  1 22  1  1
  2 23  1  1
 12 24  1  6
 10 25  1  1
 26 14  1  0
 27 26  1  0
 18 17  1  0
  6 11  1  6
  7  2  1  0
  4 15  1  0
M  END
$$$$
