
     RDKit          2D

 35 39  0  0  0  0  0  0  0  0999 V2000
    2.9167   -1.1089    0.0000 N   0  0  0  0  0  0  0  0  0  0  0  0
    2.9167   -0.2839    0.0000 C   0  0  0  0  0  0  0  0  0  0  0  0
    2.0868   -1.1138    0.0000 C   0  0  0  0  0  0  0  0  0  0  0  0
    2.0868   -0.2839    0.0000 C   0  0  0  0  0  0  0  0  0  0  0  0
    3.7029   -1.3613    0.0000 C   0  0  0  0  0  0  0  0  0  0  0  0
    3.6980   -0.0267    0.0000 S   0  0  0  0  0  0  0  0  0  0  0  0
    4.1883   -0.6915    0.0000 C   0  0  0  0  0  0  0  0  0  0  0  0
    0.6503   -0.2839    0.0000 C   0  0  0  0  0  0  0  0  0  0  0  0
    1.3637    0.1334    0.0000 N   0  0  0  0  0  0  0  0  0  0  0  0
   -0.7764   -0.2839    0.0000 C   0  0  0  0  0  0  0  0  0  0  0  0
   -0.0630    0.1286    0.0000 C   0  0  0  0  0  0  0  0  0  0  0  0
    3.6932   -2.1815    0.0000 C   0  0  0  0  0  0  0  0  0  0  0  0
   -1.4899    0.1286    0.0000 O   0  0  0  0  0  0  0  0  0  0  0  0
    1.5044   -1.6961    0.0000 O   0  0  0  0  0  0  0  0  0  0  0  0
   -3.6301   -0.2888    0.0000 C   0  0  0  0  0  0  0  0  0  0  0  0
    0.6503   -1.1089    0.0000 O   0  0  0  0  0  0  0  0  0  0  0  0
   -0.7764   -1.1089    0.0000 O   0  0  0  0  0  0  0  0  0  0  0  0
   -2.2082   -0.2839    0.0000 C   0  0  0  0  0  0  0  0  0  0  0  0
    4.4066   -2.6037    0.0000 O   0  0  0  0  0  0  0  0  0  0  0  0
   -2.9167    0.1286    0.0000 C   0  0  0  0  0  0  0  0  0  0  0  0
   -0.0630    0.9536    0.0000 C   0  0  0  0  0  0  0  0  0  0  0  0
   -3.6301   -1.1138    0.0000 C   0  0  0  0  0  0  0  0  0  0  0  0
    2.9749   -2.5892    0.0000 O   0  0  0  0  0  0  0  0  0  0  0  0
   -2.9167   -1.5263    0.0000 C   0  0  0  0  0  0  0  0  0  0  0  0
   -2.2033   -1.1138    0.0000 C   0  0  0  0  0  0  0  0  0  0  0  0
    4.9017   -0.2742    0.0000 C   0  0  0  0  0  0  0  0  0  0  0  0
    4.9017   -1.1041    0.0000 C   0  0  0  0  0  0  0  0  0  0  0  0
   -4.4163   -0.0315    0.0000 C   0  0  0  0  0  0  0  0  0  0  0  0
   -4.9017   -0.6964    0.0000 C   0  0  0  0  0  0  0  0  0  0  0  0
   -4.4163   -1.3662    0.0000 C   0  0  0  0  0  0  0  0  0  0  0  0
    0.6551    1.3662    0.0000 C   0  0  0  0  0  0  0  0  0  0  0  0
   -0.7717    1.3613    0.0000 C   0  0  0  0  0  0  0  0  0  0  0  0
   -0.7764    2.1863    0.0000 C   0  0  0  0  0  0  0  0  0  0  0  0
    0.6551    2.1912    0.0000 C   0  0  0  0  0  0  0  0  0  0  0  0
   -0.0582    2.6037    0.0000 C   0  0  0  0  0  0  0  0  0  0  0  0
  2  1  1  0
  3  1  1  0
  4  3  1  0
  5  1  1  0
  2  6  1  1
  7  5  1  0
  8  9  1  0
  4  9  1  1
 10 11  1  0
 11  8  1  0
  5 12  1  6
 13 10  1  0
 14  3  2  0
 15 20  2  0
 16  8  2  0
 17 10  2  0
 18 13  1  0
 19 12  1  0
 20 18  1  0
 21 11  1  0
 22 15  1  0
 23 12  2  0
 24 25  1  0
 25 18  2  0
 26  7  1  0
 27  7  1  0
 28 15  1  0
 29 28  1  0
 30 22  1  0
 31 21  2  0
 32 21  1  0
 33 32  2  0
 34 31  1  0
 35 33  1  0
  4  2  1  0
  6  7  1  0
 35 34  2  0
 24 22  2  0
 30 29  1  0
M  END
$$$$
