
     RDKit          2D

 10  9  0  0  1  0  0  0  0  0999 V2000
   16.8205   -7.7126    0.0000 O   0  0  0  0  0  0  0  0  0  0  0  0
   17.5349   -5.6502    0.0000 O   0  0  0  0  0  0  0  0  0  0  0  0
   15.3916   -6.8877    0.0000 O   0  0  0  0  0  0  0  0  0  0  0  0
   18.9638   -6.4751    0.0000 O   0  0  0  0  0  0  0  0  0  0  0  0
   16.1060   -5.6502    0.0000 O   0  0  0  0  0  0  0  0  0  0  0  0
   18.2492   -7.7126    0.0000 O   0  0  0  0  0  0  0  0  0  0  0  0
   16.8205   -6.8877    0.0000 C   0  0  0  0  0  0  0  0  0  0  0  0
   17.5349   -6.4751    0.0000 C   0  0  0  0  0  0  0  0  0  0  0  0
   16.1060   -6.4751    0.0000 C   0  0  0  0  0  0  0  0  0  0  0  0
   18.2492   -6.8877    0.0000 C   0  0  0  0  0  0  0  0  0  0  0  0
  7  1  1  1
  8  2  1  1
  3  9  1  0
  4 10  1  0
  5  9  2  0
  6 10  2  0
  7  8  1  0
  7  9  1  0
  8 10  1  0
M  END
$$$$
