 
     RDKit          2D

 25 27  0  0  1  0  0  0  0  0999 V2000
   16.5569  -35.1237    0.0000 C   0  0  0  0  0  0  0  0  0  0  0  0
   16.5569  -35.9488    0.0000 C   0  0  0  0  0  0  0  0  0  0  0  0
   17.2714  -36.3613    0.0000 C   0  0  0  0  0  0  0  0  0  0  0  0
   17.9859  -35.9488    0.0000 C   0  0  0  0  0  0  0  0  0  0  0  0
   17.9859  -35.1237    0.0000 C   0  0  0  0  0  0  0  0  0  0  0  0
   17.2714  -34.7112    0.0000 C   0  0  0  0  0  0  0  0  0  0  0  0
   17.2714  -37.1863    0.0000 F   0  0  0  0  0  0  0  0  0  0  0  0
   18.7115  -34.7047    0.0000 F   0  0  0  0  0  0  0  0  0  0  0  0
   17.2714  -33.8862    0.0000 C   0  0  0  0  0  0  0  0  0  0  0  0
   16.5470  -33.4679    0.0000 C   0  0  0  0  0  0  0  0  0  0  0  0
   17.9760  -33.4794    0.0000 C   0  0  0  0  0  0  0  0  0  0  0  0
   15.8375  -33.8775    0.0000 N   0  0  0  0  0  0  0  0  0  0  0  0
   16.5471  -32.6486    0.0000 C   0  0  0  0  0  0  0  0  0  0  0  0
   17.9760  -32.6543    0.0000 N   0  0  0  0  0  0  0  0  0  0  0  0
   18.6353  -32.1752    0.0000 C   0  0  0  0  0  0  0  0  0  0  0  0
   18.3833  -31.4001    0.0000 N   0  0  0  0  0  0  0  0  0  0  0  0
   17.5683  -31.4003    0.0000 C   0  0  0  0  0  0  0  0  0  0  0  0
   17.3166  -32.1755    0.0000 N   0  0  0  0  0  0  0  0  0  0  0  0
   15.1403  -33.4750    0.0000 C   0  0  0  0  0  0  0  0  0  0  0  0
   14.4258  -33.8874    0.0000 C   0  0  0  0  0  0  0  0  0  0  0  0
   14.4257  -34.7125    0.0000 C   0  0  0  0  0  0  0  0  0  0  0  0
   15.1229  -35.1151    0.0000 C   0  0  0  0  0  0  0  0  0  0  0  0
   15.8374  -34.7026    0.0000 C   0  0  0  0  0  0  0  0  0  0  0  0
   13.7013  -35.1307    0.0000 C   0  0  0  0  0  0  0  0  0  0  0  0
   17.9859  -34.2162    0.0000 O   0  0  0  0  0  0  0  0  0  0  0  0
  1  2  2  0
  2  3  1  0
  3  4  2  0
  4  5  1  0
  5  6  2  0
  1  6  1  0
  3  7  1  0
  5  8  1  0
  6  9  1  0
  9 10  1  0
  9 11  1  0
 10 12  1  0
 10 13  1  6
 11 14  1  0
 14 15  1  0
 15 16  2  0
 16 17  1  0
 17 18  2  0
 14 18  1  0
 12 19  1  0
 19 20  1  0
 20 21  1  0
 21 22  1  0
 22 23  1  0
 12 23  1  0
 21 24  2  3
  9 25  1  1
M  END
$$$$
