
     RDKit          2D

 27 29  0  0  0  0  0  0  0  0999 V2000
    2.5305    0.4183    0.0000 C   0  0  0  0  0  0  0  0  0  0  0  0
    1.8194    0.8365    0.0000 C   0  0  0  0  0  0  0  0  0  0  0  0
    1.0665    0.4183    0.0000 C   0  0  0  0  0  0  0  0  0  0  0  0
    1.0665   -0.4183    0.0000 N   0  0  0  0  0  0  0  0  0  0  0  0
    1.8194   -0.8365    0.0000 C   0  0  0  0  0  0  0  0  0  0  0  0
    2.5305   -0.4183    0.0000 C   0  0  0  0  0  0  0  0  0  0  0  0
    0.3555   -0.8365    0.0000 C   0  0  0  0  0  0  0  0  0  0  0  0
   -0.3555   -0.4183    0.0000 C   0  0  0  0  0  0  0  0  0  0  0  0
   -1.1084   -0.8365    0.0000 C   0  0  0  0  0  0  0  0  0  0  0  0
   -1.8194   -0.4183    0.0000 C   0  0  0  0  0  0  0  0  0  0  0  0
   -2.5305   -0.8365    0.0000 C   0  0  0  0  0  0  0  0  0  0  0  0
   -1.8194    0.4183    0.0000 O   0  0  0  0  0  0  0  0  0  0  0  0
   -3.2415   -0.4183    0.0000 C   0  0  0  0  0  0  0  0  0  0  0  0
   -3.9944   -0.8365    0.0000 C   0  0  0  0  0  0  0  0  0  0  0  0
   -3.9944   -1.6731    0.0000 C   0  0  0  0  0  0  0  0  0  0  0  0
   -3.2415   -2.0913    0.0000 C   0  0  0  0  0  0  0  0  0  0  0  0
   -2.5305   -1.6731    0.0000 C   0  0  0  0  0  0  0  0  0  0  0  0
   -4.7055   -2.0495    0.0000 F   0  0  0  0  0  0  0  0  0  0  0  0
    3.2415    0.8365    0.0000 N   0  0  0  0  0  0  0  0  0  0  0  0
    3.9944    0.4183    0.0000 C   0  0  0  0  0  0  0  0  0  0  0  0
    4.7055    0.8365    0.0000 C   0  0  0  0  0  0  0  0  0  0  0  0
    4.7055    1.6731    0.0000 C   0  0  0  0  0  0  0  0  0  0  0  0
    3.9944    2.0913    0.0000 C   0  0  0  0  0  0  0  0  0  0  0  0
    3.2415    1.6731    0.0000 C   0  0  0  0  0  0  0  0  0  0  0  0
    2.9488   -0.2927    0.0000 C   0  0  0  0  0  0  0  0  0  0  0  0
    3.7853   -0.2927    0.0000 N   0  0  0  0  0  0  0  0  0  0  0  0
    2.5305   -1.0038    0.0000 O   0  0  0  0  0  0  0  0  0  0  0  0
  6  1  1  0
  4  7  1  0
 11 13  2  0
 13 14  1  0
 14 15  2  0
 15 16  1  0
 16 17  2  0
 17 11  1  0
 15 18  1  0
  7  8  1  0
  1 19  1  0
  8  9  1  0
  1  2  1  0
  9 10  1  0
  2  3  1  0
 19 20  1  0
 20 21  1  0
 21 22  1  0
 22 23  1  0
 23 24  1  0
 24 19  1  0
 10 11  1  0
  3  4  1  0
 10 12  2  0
  4  5  1  0
  5  6  1  0
 25 26  1  0
 25  1  1  0
 25 27  2  0
M  END
$$$$
