
     RDKit          2D

  4  3  0  0  0  0  0  0  0  0999 V2000
    0.0000   -0.2010    0.0000 C   0  0  0  0  0  0  0  0  0  0  0  0
    0.0000    0.6177    0.0000 O   0  0  0  0  0  0  0  0  0  0  0  0
    0.7120   -0.6177    0.0000 N   0  0  0  0  0  0  0  0  0  0  0  0
   -0.7120   -0.6177    0.0000 N   0  0  0  0  0  0  0  0  0  0  0  0
  2  1  2  0
  3  1  1  0
  4  1  1  0
M  ISO  1   1  14
M  END
$$$$
