
     RDKit          2D

 35 38  0  0  0  0  0  0  0  0999 V2000
    0.4104   -2.9203    0.0000 O   0  0  0  0  0  0  0  0  0  0  0  0
    0.8314   -2.2047    0.0000 C   0  0  0  0  0  0  0  0  0  0  0  0
    0.4104   -1.4891    0.0000 C   0  0  0  0  0  0  0  0  0  0  0  0
    0.8314   -0.7735    0.0000 C   0  0  0  0  0  0  0  0  0  0  0  0
    0.4104   -0.0579    0.0000 C   0  0  0  0  0  0  0  0  0  0  0  0
   -0.4104   -0.0579    0.0000 C   0  0  0  0  0  0  0  0  0  0  0  0
   -0.8314   -0.7735    0.0000 C   0  0  0  0  0  0  0  0  0  0  0  0
   -1.6521   -0.7735    0.0000 C   0  0  0  0  0  0  0  0  0  0  0  0
   -2.0626   -0.0579    0.0000 C   0  0  0  0  0  0  0  0  0  0  0  0
   -2.8940   -0.0579    0.0000 C   0  0  0  0  0  0  0  0  0  0  0  0
   -3.3044   -0.7735    0.0000 C   0  0  0  0  0  0  0  0  0  0  0  0
   -2.8940   -1.4891    0.0000 C   0  0  0  0  0  0  0  0  0  0  0  0
   -2.0626   -1.4891    0.0000 C   0  0  0  0  0  0  0  0  0  0  0  0
   -4.1357   -0.7735    0.0000 O   0  0  0  0  0  0  0  0  0  0  0  0
   -4.5462   -1.4891    0.0000 C   0  0  0  0  0  0  0  0  0  0  0  0
   -5.2619   -1.0786    0.0000 F   0  0  0  0  0  0  0  0  0  0  0  0
   -3.8306   -1.8995    0.0000 F   0  0  0  0  0  0  0  0  0  0  0  0
   -4.9566   -2.2047    0.0000 F   0  0  0  0  0  0  0  0  0  0  0  0
   -0.4104   -1.4891    0.0000 C   0  0  0  0  0  0  0  0  0  0  0  0
   -0.8314   -2.2047    0.0000 C   0  0  0  0  0  0  0  0  0  0  0  0
    1.6521   -2.2047    0.0000 N   0  0  0  0  0  0  0  0  0  0  0  0
    2.0626   -1.4891    0.0000 C   0  0  0  0  0  0  0  0  0  0  0  0
    2.8940   -1.4891    0.0000 C   0  0  0  0  0  0  0  0  0  0  0  0
    3.3044   -0.7735    0.0000 C   0  0  0  0  0  0  0  0  0  0  0  0
    2.8940   -0.0579    0.0000 C   0  0  0  0  0  0  0  0  0  0  0  0
    2.0626   -0.0579    0.0000 N   0  0  0  0  0  0  0  0  0  0  0  0
    1.6521   -0.7735    0.0000 C   0  0  0  0  0  0  0  0  0  0  0  0
    3.3044    0.6578    0.0000 N   0  0  0  0  0  0  0  0  0  0  0  0
    4.1358    0.6578    0.0000 C   0  0  0  0  0  0  0  0  0  0  0  0
    4.5462    1.3734    0.0000 C   0  0  0  0  0  0  0  0  0  0  0  0
    4.1358    2.0889    0.0000 O   0  0  0  0  0  0  0  0  0  0  0  0
    3.3044    2.0889    0.0000 C   0  0  0  0  0  0  0  0  0  0  0  0
    2.8940    1.3734    0.0000 C   0  0  0  0  0  0  0  0  0  0  0  0
    2.5888    2.4993    0.0000 C   0  0  0  0  0  0  0  0  0  0  0  0
    5.2619    1.7838    0.0000 C   0  0  0  0  0  0  0  0  0  0  0  0
  1  2  2  0
  2  3  1  0
  2 21  1  0
  3  4  2  0
  3 19  1  0
  4  5  1  0
  5  6  2  0
  6  7  1  0
  7  8  1  0
  7 19  2  0
  8  9  2  0
  8 13  1  0
  9 10  1  0
 10 11  2  0
 11 12  1  0
 11 14  1  0
 12 13  2  0
 14 15  1  0
 15 16  1  0
 15 17  1  0
 15 18  1  0
 19 20  1  0
 21 22  1  0
 22 23  2  0
 22 27  1  0
 23 24  1  0
 24 25  2  0
 25 26  1  0
 25 28  1  0
 26 27  2  0
 28 29  1  0
 28 33  1  0
 29 30  1  0
 30 31  1  0
 30 35  1  1
 31 32  1  0
 32 33  1  0
 32 34  1  1
M  END
$$$$
