1258
     RDKit          2D

 39 39  0  0  1  0  0  0  0  0999 V2000
    7.3659   -3.5063    0.0000 O   0  0  0  0  0  0  0  0  0  0  0  0
    9.5094   -1.4438    0.0000 O   0  0  0  0  0  0  0  0  0  0  0  0
    3.7935    1.0313    0.0000 O   0  0  0  0  0  0  0  0  0  0  0  0
    2.3645    0.2063    0.0000 O   0  0  0  0  0  0  0  0  0  0  0  0
   12.3674   -3.9188    0.0000 O   0  0  0  0  0  0  0  0  0  0  0  0
    5.2224    3.5063    0.0000 O   0  0  0  0  0  0  0  0  0  0  0  0
    6.6515   -1.4438    0.0000 N   0  0  0  0  0  0  0  0  0  0  0  0
   10.2239   -2.6813    0.0000 N   0  0  0  0  0  0  0  0  0  0  0  0
   13.0818   -2.6813    0.0000 N   0  0  0  0  0  0  0  0  0  0  0  0
    5.2224   -2.2688    0.0000 C   0  0  0  0  0  0  0  0  0  0  0  0
    5.9370   -2.6813    0.0000 C   0  0  0  0  0  0  0  0  0  0  0  0
    6.6515   -2.2688    0.0000 C   0  0  0  0  0  0  0  0  0  0  0  0
    7.3659   -2.6813    0.0000 C   0  0  0  0  0  0  0  0  0  0  0  0
    4.5080   -2.6813    0.0000 C   0  0  0  0  0  0  0  0  0  0  0  0
    8.0804   -2.2688    0.0000 C   0  0  0  0  0  0  0  0  0  0  0  0
    8.7949   -2.6813    0.0000 C   0  0  0  0  0  0  0  0  0  0  0  0
    5.2224   -1.4438    0.0000 C   0  0  0  0  0  0  0  0  0  0  0  0
    8.7949   -3.5063    0.0000 C   0  0  0  0  0  0  0  0  0  0  0  0
    3.7935   -2.2688    0.0000 C   0  0  0  0  0  0  0  0  0  0  0  0
    4.5080   -3.5063    0.0000 C   0  0  0  0  0  0  0  0  0  0  0  0
    9.5094   -2.2688    0.0000 C   0  0  0  0  0  0  0  0  0  0  0  0
    4.5080   -1.0313    0.0000 C   0  0  0  0  0  0  0  0  0  0  0  0
    8.0804   -3.9188    0.0000 C   0  0  0  0  0  0  0  0  0  0  0  0
    9.5094   -3.9188    0.0000 C   0  0  0  0  0  0  0  0  0  0  0  0
   10.9383   -2.2688    0.0000 C   0  0  0  0  0  0  0  0  0  0  0  0
   11.6529   -2.6813    0.0000 C   0  0  0  0  0  0  0  0  0  0  0  0
    4.5080   -0.2063    0.0000 C   0  0  0  0  0  0  0  0  0  0  0  0
    3.7935   -1.4438    0.0000 C   0  0  0  0  0  0  0  0  0  0  0  0
    3.7935    0.2063    0.0000 C   0  0  0  0  0  0  0  0  0  0  0  0
    3.0791   -1.0313    0.0000 C   0  0  0  0  0  0  0  0  0  0  0  0
   11.2404   -3.3958    0.0000 C   0  0  0  0  0  0  0  0  0  0  0  0
   12.0654   -1.9668    0.0000 C   0  0  0  0  0  0  0  0  0  0  0  0
    3.0791   -0.2063    0.0000 C   0  0  0  0  0  0  0  0  0  0  0  0
   12.3674   -3.0938    0.0000 C   0  0  0  0  0  0  0  0  0  0  0  0
    4.5080    1.4438    0.0000 C   0  0  0  0  0  0  0  0  0  0  0  0
    4.5080    2.2688    0.0000 C   0  0  0  0  0  0  0  0  0  0  0  0
    1.6500   -0.2063    0.0000 C   0  0  0  0  0  0  0  0  0  0  0  0
    5.2224    2.6813    0.0000 C   0  0  0  0  0  0  0  0  0  0  0  0
    5.9370    3.9188    0.0000 C   0  0  0  0  0  0  0  0  0  0  0  0
 13  1  1  6
  2 21  2  0
  3 29  1  0
  3 35  1  0
  4 33  1  0
  4 37  1  0
  5 34  2  0
  6 38  1  0
  6 39  1  0
 12  7  1  6
  8 21  1  0
  8 25  1  0
  9 34  1  0
 10 11  1  1
 10 14  1  0
 10 17  1  0
 11 12  1  0
 12 13  1  0
 13 15  1  0
 14 19  1  0
 14 20  1  0
 16 15  1  6
 16 18  1  0
 16 21  1  0
 17 22  1  0
 18 23  1  0
 18 24  1  0
 22 27  2  0
 22 28  1  0
 25 26  1  0
 26 31  1  0
 26 32  1  0
 26 34  1  0
 27 29  1  0
 28 30  2  0
 29 33  2  0
 30 33  1  0
 35 36  1  0
 36 38  1  0
M  END
$$$$
