
     RDKit          2D

 42 45  0  0  0  0  0  0  0  0999 V2000
    0.3613    0.1991    0.0000 O   0  0  0  0  0  0  0  0  0  0  0  0
    3.9284   -3.5254    0.0000 O   0  0  0  0  0  0  0  0  0  0  0  0
    3.9191   -1.0423    0.0000 O   0  0  0  0  0  0  0  0  0  0  0  0
    4.6326   -2.2746    0.0000 O   0  0  0  0  0  0  0  0  0  0  0  0
   -3.9284   -3.1085    0.0000 O   0  0  0  0  0  0  0  0  0  0  0  0
    1.0748   -1.0330    0.0000 N   0  0  0  0  0  0  0  0  0  0  0  0
    1.1118    0.6810    0.0000 N   0  0  0  0  0  0  0  0  0  0  0  0
    2.4367    0.6810    0.0000 N   0  0  0  0  0  0  0  0  0  0  0  0
   -0.3334   -1.8669    0.0000 N   0  0  0  0  0  0  0  0  0  0  0  0
   -4.6326   -1.8762    0.0000 N   0  0  0  0  0  0  0  0  0  0  0  0
    1.7696   -0.6346    0.0000 C   0  0  0  0  0  0  0  0  0  0  0  0
    1.7696    0.1991    0.0000 C   0  0  0  0  0  0  0  0  0  0  0  0
    0.3613   -0.6254    0.0000 C   0  0  0  0  0  0  0  0  0  0  0  0
    1.0748   -1.8669    0.0000 C   0  0  0  0  0  0  0  0  0  0  0  0
   -0.3334   -1.0330    0.0000 C   0  0  0  0  0  0  0  0  0  0  0  0
    1.3619    1.4593    0.0000 C   0  0  0  0  0  0  0  0  0  0  0  0
    1.7789   -2.2746    0.0000 C   0  0  0  0  0  0  0  0  0  0  0  0
   -1.7789   -1.0423    0.0000 C   0  0  0  0  0  0  0  0  0  0  0  0
   -1.0469   -0.6254    0.0000 C   0  0  0  0  0  0  0  0  0  0  0  0
    3.2058   -2.2746    0.0000 C   0  0  0  0  0  0  0  0  0  0  0  0
   -2.4923   -0.6254    0.0000 C   0  0  0  0  0  0  0  0  0  0  0  0
   -1.7789   -1.8669    0.0000 C   0  0  0  0  0  0  0  0  0  0  0  0
    2.1773    1.4593    0.0000 C   0  0  0  0  0  0  0  0  0  0  0  0
    0.8895    2.1078    0.0000 C   0  0  0  0  0  0  0  0  0  0  0  0
    2.4923   -1.8669    0.0000 C   0  0  0  0  0  0  0  0  0  0  0  0
    3.2058   -3.1085    0.0000 C   0  0  0  0  0  0  0  0  0  0  0  0
   -3.2058   -1.8669    0.0000 C   0  0  0  0  0  0  0  0  0  0  0  0
    1.7789   -3.1085    0.0000 C   0  0  0  0  0  0  0  0  0  0  0  0
   -3.2058   -1.0423    0.0000 C   0  0  0  0  0  0  0  0  0  0  0  0
   -2.4923   -2.2839    0.0000 C   0  0  0  0  0  0  0  0  0  0  0  0
    2.4738   -1.0423    0.0000 C   0  0  0  0  0  0  0  0  0  0  0  0
    2.4923   -3.5254    0.0000 C   0  0  0  0  0  0  0  0  0  0  0  0
    3.9191   -1.8669    0.0000 C   0  0  0  0  0  0  0  0  0  0  0  0
    1.2322    2.8582    0.0000 C   0  0  0  0  0  0  0  0  0  0  0  0
    0.0649    2.0151    0.0000 C   0  0  0  0  0  0  0  0  0  0  0  0
   -3.9284   -2.2839    0.0000 C   0  0  0  0  0  0  0  0  0  0  0  0
   -2.4923    0.1991    0.0000 C   0  0  0  0  0  0  0  0  0  0  0  0
   -1.0469   -2.2931    0.0000 C   0  0  0  0  0  0  0  0  0  0  0  0
    0.7411    3.5254    0.0000 C   0  0  0  0  0  0  0  0  0  0  0  0
   -0.4169    2.6915    0.0000 C   0  0  0  0  0  0  0  0  0  0  0  0
   -0.0834    3.4419    0.0000 C   0  0  0  0  0  0  0  0  0  0  0  0
    4.6326   -3.1177    0.0000 C   0  0  0  0  0  0  0  0  0  0  0  0
  1 13  2  0
  2 26  1  0
  2 42  1  0
  3 33  2  0
  4 33  1  0
  5 36  2  0
  6 11  1  0
  6 13  1  0
  6 14  1  0
  7 12  2  0
  7 16  1  0
  8 12  1  0
  8 23  1  0
 15  9  1  1
 10 36  1  0
 11 12  1  0
 11 31  1  6
 13 15  1  0
 14 17  1  0
 15 19  1  0
 16 23  2  0
 16 24  1  0
 17 25  1  0
 17 28  2  0
 18 19  1  0
 18 21  2  0
 18 22  1  0
 20 25  2  0
 20 26  1  0
 20 33  1  0
 21 29  1  0
 21 37  1  0
 22 30  2  0
 22 38  1  0
 24 34  2  0
 24 35  1  0
 26 32  2  0
 27 29  2  0
 27 30  1  0
 27 36  1  0
 28 32  1  0
 34 39  1  0
 35 40  2  0
 39 41  2  0
 40 41  1  0
M  END
$$$$
