
     RDKit          2D

  9  9  0  0  0  0  0  0  0  0999 V2000
    1.4294   -0.4132    0.0000 O   0  0  0  0  0  0  0  0  0  0  0  0
    1.4294   -1.2382    0.0000 C   0  0  0  0  0  0  0  0  0  0  0  0
   -1.4294    1.2382    0.0000 O   0  0  0  0  0  0  0  0  0  0  0  0
   -0.7144    0.8243    0.0000 C   0  0  0  0  0  0  0  0  0  0  0  0
    0.0006    1.2367    0.0000 C   0  0  0  0  0  0  0  0  0  0  0  0
    0.7144    0.8243    0.0000 C   0  0  0  0  0  0  0  0  0  0  0  0
    0.7144   -0.0007    0.0000 C   0  0  0  0  0  0  0  0  0  0  0  0
   -0.0007   -0.4132    0.0000 C   0  0  0  0  0  0  0  0  0  0  0  0
   -0.7144    0.0007    0.0000 C   0  0  0  0  0  0  0  0  0  0  0  0
  1  2  1  0
  1  7  1  0
  3  4  1  0
  4  5  2  0
  4  9  1  0
  5  6  1  0
  6  7  2  0
  7  8  1  0
  8  9  2  0
M  END
$$$$
