
     RDKit          2D

 18 19  0  0  0  0  0  0  0  0999 V2000
   -4.2868    5.5286    0.0000 C   0  0  0  0  0  0  0  0  0  0  0  0
   -0.3020    2.1965    0.0000 C   0  0  0  0  0  0  0  0  0  0  0  0
   -0.0470    2.9812    0.0000 C   0  0  0  0  0  0  0  0  0  0  0  0
   -1.1270    2.1965    0.0000 C   0  0  0  0  0  0  0  0  0  0  0  0
   -1.4289    5.5286    0.0000 C   0  0  0  0  0  0  0  0  0  0  0  0
   -2.1434    4.2911    0.0000 C   0  0  0  0  0  0  0  0  0  0  0  0
   -2.1434    5.9411    0.0000 C   0  0  0  0  0  0  0  0  0  0  0  0
   -2.8579    4.7036    0.0000 C   0  0  0  0  0  0  0  0  0  0  0  0
   -0.7145    4.2911    0.0000 C   0  0  0  0  0  0  0  0  0  0  0  0
   -3.5724    5.9411    0.0000 C   0  0  0  0  0  0  0  0  0  0  0  0
   -1.4289    4.7036    0.0000 C   0  0  0  0  0  0  0  0  0  0  0  0
   -2.8579    5.5286    0.0000 C   0  0  0  0  0  0  0  0  0  0  0  0
   -0.7145    3.4661    0.0000 C   0  0  0  0  0  0  0  0  0  0  0  0
   -1.3819    2.9812    0.0000 C   0  0  0  0  0  0  0  0  0  0  0  0
   -3.5724    6.7661    0.0000 C   0  0  0  0  0  0  0  0  0  0  0  0
   -2.1665    3.2361    0.0000 O   0  0  0  0  0  0  0  0  0  0  0  0
   -4.2868    7.1786    0.0000 O   0  0  0  0  0  0  0  0  0  0  0  0
   -2.8579    7.1786    0.0000 O   0  0  0  0  0  0  0  0  0  0  0  0
  3  2  1  0
  4  2  1  0
  7  5  2  0
  8  6  1  0
 10  1  1  0
 11  5  1  0
 11  6  2  0
 11  9  1  0
 12  7  1  0
 12  8  2  0
 12 10  1  0
 13  3  1  0
 13  9  1  0
 14  4  1  0
 14 13  1  0
 15 10  1  0
 16 14  2  0
 17 15  2  0
 18 15  1  0
M  END
$$$$
