
     RDKit          2D

 14 16  0  0  1  0  0  0  0  0999 V2000
   -1.1670   -0.3348    0.0000 C   0  0  0  0  0  0  0  0  0  0  0  0
   -0.3968   -0.0390    0.0000 C   0  0  0  0  0  0  0  0  0  0  0  0
   -1.2959   -1.1496    0.0000 C   0  0  0  0  0  0  0  0  0  0  0  0
    1.7132   -0.1214    0.0000 C   0  0  0  0  0  0  0  0  0  0  0  0
    1.6290   -1.9119    0.0000 C   0  0  0  0  0  0  0  0  0  0  0  0
    1.2248   -1.5105    0.0000 C   0  0  0  0  0  0  0  0  0  0  0  0
    0.6220   -0.9357    0.0000 C   0  0  0  0  0  0  0  0  0  0  0  0
    1.5820   -0.9250    0.0000 C   0  0  0  0  0  0  0  0  0  0  0  0
    1.1634   -0.5574    0.0000 C   0  0  0  0  0  0  0  0  0  0  0  0
    0.2444   -0.5581    0.0000 C   0  0  0  0  0  0  0  0  0  0  0  0
   -0.6547   -1.6687    0.0000 C   0  0  0  0  0  0  0  0  0  0  0  0
    0.8127   -2.0914    0.0000 N   0  0  0  0  0  0  0  0  0  0  0  0
    0.1154   -1.3730    0.0000 N   0  0  0  0  0  0  0  0  0  0  0  0
   -0.7837   -2.4836    0.0000 O   0  0  0  0  0  0  0  0  0  0  0  0
  2  1  1  0
  3  1  2  0
  8  4  1  0
  8  5  1  1
  8  7  1  0
  9  4  1  0
  9  6  1  6
 10  2  2  0
 10  9  1  0
 11  3  1  0
 12  5  1  0
 12  6  1  0
 13  7  1  0
 13 10  1  0
 13 11  1  0
 14 11  2  0
M  END
$$$$
