
     RDKit          2D

  4  3  0  0  0  0  0  0  0  0999 V2000
    0.5610   -0.0798    0.0000 O   0  0  0  0  0  0  0  0  0  0  0  0
    0.5610    0.7214    0.0000 C   0  0  0  0  0  0  0  0  0  0  0  0
    1.2828    1.1224    0.0000 O   0  0  0  0  0  0  0  0  0  0  0  0
   -0.1600    1.1224    0.0000 O   0  0  0  0  0  0  0  0  0  0  0  0
  1  2  2  0
  2  3  1  0
  2  4  1  0
M  CHG  2   3  -1   4  -1
M  END
$$$$
