
     RDKit          2D

 55 62  0  0  0  0  0  0  0  0999 V2000
    2.7363   -0.0803    0.0000 C   0  0  0  0  0  0  0  0  0  0  0  0
    2.0896   -0.5925    0.0000 C   0  0  0  0  0  0  0  0  0  0  0  0
    1.3226   -0.2885    0.0000 C   0  0  0  0  0  0  0  0  0  0  0  0
    1.2024    0.5276    0.0000 C   0  0  0  0  0  0  0  0  0  0  0  0
    1.8492    1.0398    0.0000 C   0  0  0  0  0  0  0  0  0  0  0  0
    2.6161    0.7358    0.0000 C   0  0  0  0  0  0  0  0  0  0  0  0
    1.7290    1.8560    0.0000 C   0  0  0  0  0  0  0  0  0  0  0  0
    2.3758    2.3682    0.0000 N   0  0  0  0  0  0  0  0  0  0  0  0
    3.1427    2.0642    0.0000 C   0  0  0  0  0  0  0  0  0  0  0  0
    3.2629    1.2480    0.0000 C   0  0  0  0  0  0  0  0  0  0  0  0
    4.0298    0.9440    0.0000 C   0  0  0  0  0  0  0  0  0  0  0  0
    4.6766    1.4562    0.0000 C   0  0  0  0  0  0  0  0  0  0  0  0
    4.5564    2.2724    0.0000 C   0  0  0  0  0  0  0  0  0  0  0  0
    3.7895    2.5764    0.0000 C   0  0  0  0  0  0  0  0  0  0  0  0
    0.9621    2.1600    0.0000 O   0  0  0  0  0  0  0  0  0  0  0  0
    0.3153    1.6478    0.0000 C   0  0  0  0  0  0  0  0  0  0  0  0
   -0.4791    1.8700    0.0000 C   0  0  0  0  0  0  0  0  0  0  0  0
   -0.9359    1.1830    0.0000 C   0  0  0  0  0  0  0  0  0  0  0  0
   -0.4237    0.5363    0.0000 N   0  0  0  0  0  0  0  0  0  0  0  0
    0.3495    0.8236    0.0000 C   0  0  0  0  0  0  0  0  0  0  0  0
   -1.6669    1.5656    0.0000 C   0  0  0  0  0  0  0  0  0  0  0  0
   -2.4903    1.6177    0.0000 N   0  0  0  0  0  0  0  0  0  0  0  0
   -1.4447    2.3601    0.0000 O   0  0  0  0  0  0  0  0  0  0  0  0
   -0.2189   -0.2628    0.0000 C   0  0  0  0  0  0  0  0  0  0  0  0
   -0.3568   -1.0762    0.0000 C   0  0  0  0  0  0  0  0  0  0  0  0
    0.6053   -0.2286    0.0000 O   0  0  0  0  0  0  0  0  0  0  0  0
   -0.8136   -1.7631    0.0000 C   0  0  0  0  0  0  0  0  0  0  0  0
    0.4100   -1.3802    0.0000 N   0  0  0  0  0  0  0  0  0  0  0  0
   -1.5104   -2.2049    0.0000 C   0  0  0  0  0  0  0  0  0  0  0  0
   -2.3266   -2.3251    0.0000 C   0  0  0  0  0  0  0  0  0  0  0  0
   -3.1211   -2.1029    0.0000 C   0  0  0  0  0  0  0  0  0  0  0  0
   -3.7566   -1.5768    0.0000 C   0  0  0  0  0  0  0  0  0  0  0  0
   -4.1231   -0.8377    0.0000 C   0  0  0  0  0  0  0  0  0  0  0  0
   -4.1573   -0.0134    0.0000 C   0  0  0  0  0  0  0  0  0  0  0  0
   -3.8533    0.7534    0.0000 C   0  0  0  0  0  0  0  0  0  0  0  0
   -3.2636    1.3304    0.0000 C   0  0  0  0  0  0  0  0  0  0  0  0
   -4.0581    1.5526    0.0000 C   0  0  0  0  0  0  0  0  0  0  0  0
   -3.2978    2.1547    0.0000 C   0  0  0  0  0  0  0  0  0  0  0  0
   -4.0288    2.5372    0.0000 O   0  0  0  0  0  0  0  0  0  0  0  0
   -2.6011    2.5965    0.0000 N   0  0  0  0  0  0  0  0  0  0  0  0
   -2.6353    3.4208    0.0000 S   0  0  0  0  0  0  0  0  0  0  0  0
   -3.4596    3.3866    0.0000 C   0  0  0  0  0  0  0  0  0  0  0  0
   -4.1564    2.9448    0.0000 C   0  0  0  0  0  0  0  0  0  0  0  0
   -4.1906    3.7691    0.0000 C   0  0  0  0  0  0  0  0  0  0  0  0
   -2.6695    4.2451    0.0000 O   0  0  0  0  0  0  0  0  0  0  0  0
   -1.8110    3.4550    0.0000 O   0  0  0  0  0  0  0  0  0  0  0  0
    0.5302   -2.1964    0.0000 C   0  0  0  0  0  0  0  0  0  0  0  0
   -0.1164   -2.7086    0.0000 C   0  0  0  0  0  0  0  0  0  0  0  0
    1.2972   -2.5004    0.0000 O   0  0  0  0  0  0  0  0  0  0  0  0
    0.0037   -3.5248    0.0000 N   0  0  0  0  0  0  0  0  0  0  0  0
   -0.6430   -4.0369    0.0000 C   0  0  0  0  0  0  0  0  0  0  0  0
   -1.4099   -3.7329    0.0000 C   0  0  0  0  0  0  0  0  0  0  0  0
   -1.5301   -2.9167    0.0000 N   0  0  0  0  0  0  0  0  0  0  0  0
   -0.8834   -2.4045    0.0000 C   0  0  0  0  0  0  0  0  0  0  0  0
   -2.0567   -4.2451    0.0000 C   0  0  0  0  0  0  0  0  0  0  0  0
  1  2  2  0
  2  3  1  0
  3  4  2  0
  4  5  1  0
  6  1  1  0
  5  7  1  0
  6  5  2  0
 10  6  1  0
  7  8  2  0
  8  9  1  0
 14  9  1  0
  9 10  2  0
 10 11  1  0
 11 12  2  0
 12 13  1  0
 13 14  2  0
  7 15  1  0
 16 15  1  1
 16 17  1  0
 16 20  1  0
 18 17  1  6
 18 19  1  0
 19 20  1  0
 18 21  1  0
 21 22  1  0
 21 23  2  0
 19 24  1  0
 24 25  1  0
 24 26  2  0
 25 27  1  0
 25 28  1  1
 27 29  1  0
 29 30  1  0
 30 31  1  0
 31 32  1  0
 32 33  1  0
 33 34  2  0
 35 34  1  6
 36 22  1  0
 35 37  1  0
 36 35  1  0
 37 36  1  0
 36 38  1  6
 38 39  2  0
 38 40  1  0
 40 41  1  0
 41 42  1  0
 42 43  1  0
 44 42  1  0
 43 44  1  0
 41 45  2  0
 41 46  2  0
 28 47  1  0
 47 48  1  0
 47 49  2  0
 48 50  2  0
 48 54  1  0
 50 51  1  0
 51 52  2  0
 52 53  1  0
 53 54  2  0
 52 55  1  0
M  END
$$$$
