
     RDKit          2D

 45 49  0  0  0  0  0  0  0  0999 V2000
   -3.1853    0.8125    0.0000 P   0  0  0  0  0  0  0  0  0  0  0  0
   -3.1853   -0.0161    0.0000 O   0  0  0  0  0  0  0  0  0  0  0  0
   -3.8955    1.2213    0.0000 O   0  0  0  0  0  0  0  0  0  0  0  0
   -3.1853    1.6411    0.0000 O   0  0  0  0  0  0  0  0  0  0  0  0
    0.3766    1.2213    0.0000 O   0  0  0  0  0  0  0  0  0  0  0  0
   -0.3336   -0.0161    0.0000 O   0  0  0  0  0  0  0  0  0  0  0  0
   -0.3336   -2.5019    0.0000 O   0  0  0  0  0  0  0  0  0  0  0  0
    0.4950   -1.1783    0.0000 O   0  0  0  0  0  0  0  0  0  0  0  0
   -1.7432    2.4697    0.0000 N   0  0  0  0  0  0  0  0  0  0  0  0
   -0.3336   -1.6733    0.0000 N   0  0  0  0  0  0  0  0  0  0  0  0
    2.5290    0.8554    0.0000 N   0  0  0  0  0  0  0  0  0  0  0  0
   -2.4859    1.2213    0.0000 C   0  0  0  0  0  0  0  0  0  0  0  0
   -1.7432    0.8125    0.0000 C   0  0  0  0  0  0  0  0  0  0  0  0
   -1.0330    1.2213    0.0000 C   0  0  0  0  0  0  0  0  0  0  0  0
   -2.4859    2.0501    0.0000 C   0  0  0  0  0  0  0  0  0  0  0  0
   -1.7432   -0.0161    0.0000 C   0  0  0  0  0  0  0  0  0  0  0  0
   -1.0330    2.0501    0.0000 C   0  0  0  0  0  0  0  0  0  0  0  0
   -0.3336    0.8125    0.0000 C   0  0  0  0  0  0  0  0  0  0  0  0
   -4.6381   -0.0161    0.0000 C   0  0  0  0  0  0  0  0  0  0  0  0
   -1.0330   -0.4358    0.0000 C   0  0  0  0  0  0  0  0  0  0  0  0
   -3.9279   -0.4358    0.0000 C   0  0  0  0  0  0  0  0  0  0  0  0
   -4.6381    0.8125    0.0000 C   0  0  0  0  0  0  0  0  0  0  0  0
   -2.4859   -0.4358    0.0000 C   0  0  0  0  0  0  0  0  0  0  0  0
   -3.1853    2.4697    0.0000 C   0  0  0  0  0  0  0  0  0  0  0  0
   -1.0330   -1.2644    0.0000 C   0  0  0  0  0  0  0  0  0  0  0  0
   -0.3336    2.5019    0.0000 C   0  0  0  0  0  0  0  0  0  0  0  0
   -2.4859   -1.2644    0.0000 C   0  0  0  0  0  0  0  0  0  0  0  0
   -1.7432   -1.6733    0.0000 C   0  0  0  0  0  0  0  0  0  0  0  0
   -5.3806   -0.4358    0.0000 C   0  0  0  0  0  0  0  0  0  0  0  0
   -5.3376    0.3927    0.0000 C   0  0  0  0  0  0  0  0  0  0  0  0
    1.1192    0.8125    0.0000 C   0  0  0  0  0  0  0  0  0  0  0  0
    1.8186    1.2644    0.0000 C   0  0  0  0  0  0  0  0  0  0  0  0
    2.5290    0.0268    0.0000 C   0  0  0  0  0  0  0  0  0  0  0  0
    3.2715    1.2213    0.0000 C   0  0  0  0  0  0  0  0  0  0  0  0
    3.9710    0.8554    0.0000 C   0  0  0  0  0  0  0  0  0  0  0  0
    3.2284   -0.3928    0.0000 C   0  0  0  0  0  0  0  0  0  0  0  0
    1.8186   -0.3928    0.0000 C   0  0  0  0  0  0  0  0  0  0  0  0
    4.6813    1.2213    0.0000 C   0  0  0  0  0  0  0  0  0  0  0  0
    3.9710    0.0268    0.0000 C   0  0  0  0  0  0  0  0  0  0  0  0
    3.2284   -1.2214    0.0000 C   0  0  0  0  0  0  0  0  0  0  0  0
    1.8186   -1.2214    0.0000 C   0  0  0  0  0  0  0  0  0  0  0  0
    2.5290   -1.6303    0.0000 C   0  0  0  0  0  0  0  0  0  0  0  0
    5.3806    0.8125    0.0000 C   0  0  0  0  0  0  0  0  0  0  0  0
    4.6813   -0.3928    0.0000 C   0  0  0  0  0  0  0  0  0  0  0  0
    5.3806    0.0268    0.0000 C   0  0  0  0  0  0  0  0  0  0  0  0
  1  2  1  0
  1  3  1  0
  1  4  2  0
  1 12  1  0
  2 21  1  0
  3 22  1  0
  5 18  1  0
  5 31  1  0
  6 18  2  0
  7 10  1  0
  8 10  2  0
  9 15  1  0
  9 17  1  0
 10 25  1  0
 11 32  1  0
 11 33  1  0
 11 34  1  0
 12 13  1  0
 12 15  2  0
 13 14  1  0
 13 16  1  0
 14 17  2  0
 14 18  1  0
 15 24  1  0
 16 20  2  0
 16 23  1  0
 17 26  1  0
 19 21  1  0
 19 22  1  0
 19 29  1  0
 19 30  1  0
 20 25  1  0
 23 27  2  0
 25 28  2  0
 27 28  1  0
 31 32  1  0
 33 36  2  0
 33 37  1  0
 34 35  1  0
 35 38  2  0
 35 39  1  0
 36 40  1  0
 37 41  2  0
 38 43  1  0
 39 44  2  0
 40 42  2  0
 41 42  1  0
 43 45  2  0
 44 45  1  0
M  CHG  2   7  -1  10   1
M  END
$$$$
