
     RDKit          2D

 23 24  0  0  0  0  0  0  0  0999 V2000
    1.9856    1.6143    0.0000 O   0  0  0  0  0  0  0  0  0  0  0  0
    0.4641    1.0304    0.0000 O   0  0  0  0  0  0  0  0  0  0  0  0
    1.1786   -0.2071    0.0000 O   0  0  0  0  0  0  0  0  0  0  0  0
   -0.0544    2.2436    0.0000 O   0  0  0  0  0  0  0  0  0  0  0  0
    1.1466    3.5774    0.0000 O   0  0  0  0  0  0  0  0  0  0  0  0
   -0.9648    0.2053    0.0000 O   0  0  0  0  0  0  0  0  0  0  0  0
   -0.9648   -1.4446    0.0000 O   0  0  0  0  0  0  0  0  0  0  0  0
    0.4641   -2.2696    0.0000 O   0  0  0  0  0  0  0  0  0  0  0  0
    2.1347    0.3809    0.0000 O   0  0  0  0  0  0  0  0  0  0  0  0
    3.5008    2.4348    0.0000 O   0  0  0  0  0  0  0  0  0  0  0  0
    1.8931   -2.2696    0.0000 O   0  0  0  0  0  0  0  0  0  0  0  0
    1.1786    1.4429    0.0000 C   0  0  0  0  0  0  0  0  0  0  0  0
    0.7661    2.1573    0.0000 C   0  0  0  0  0  0  0  0  0  0  0  0
    1.3182    2.7704    0.0000 C   0  0  0  0  0  0  0  0  0  0  0  0
    2.0718    2.4348    0.0000 C   0  0  0  0  0  0  0  0  0  0  0  0
    0.4641    0.2053    0.0000 C   0  0  0  0  0  0  0  0  0  0  0  0
   -0.2503   -0.2071    0.0000 C   0  0  0  0  0  0  0  0  0  0  0  0
   -0.2503   -1.0321    0.0000 C   0  0  0  0  0  0  0  0  0  0  0  0
    0.4641   -1.4446    0.0000 C   0  0  0  0  0  0  0  0  0  0  0  0
    1.1786   -1.0321    0.0000 C   0  0  0  0  0  0  0  0  0  0  0  0
    1.3502    0.6358    0.0000 C   0  0  0  0  0  0  0  0  0  0  0  0
    2.7863    2.8473    0.0000 C   0  0  0  0  0  0  0  0  0  0  0  0
    1.8931   -1.4446    0.0000 C   0  0  0  0  0  0  0  0  0  0  0  0
  1 12  1  0
  1 15  1  0
 12  2  1  0
 16  2  1  1
  3 16  1  0
  3 20  1  0
 13  4  1  1
 14  5  1  6
 17  6  1  1
 18  7  1  6
 19  8  1  1
  9 21  1  0
 10 22  1  0
 11 23  1  0
 12 13  1  0
 12 21  1  6
 13 14  1  0
 14 15  1  0
 15 22  1  1
 16 17  1  0
 17 18  1  0
 18 19  1  0
 19 20  1  0
 20 23  1  6
M  END
$$$$
