
     RDKit          2D

 32 35  0  0  0  0  0  0  0  0999 V2000
    3.8543   -2.6968    0.0000 Br  0  0  0  0  0  0  0  0  0  0  0  0
    5.3506    0.5734    0.0000 O   0  0  0  0  0  0  0  0  0  0  0  0
    2.6818   -1.6807    0.0000 O   0  0  0  0  0  0  0  0  0  0  0  0
    6.9930   -3.7165    0.0000 O   0  0  0  0  0  0  0  0  0  0  0  0
    5.7667   -4.8207    0.0000 O   0  0  0  0  0  0  0  0  0  0  0  0
    4.2959   -1.3377    0.0000 N   0  0  0  0  0  0  0  0  0  0  0  0
    6.8873    3.7651    0.0000 C   0  0  0  0  0  0  0  0  0  0  0  0
    8.3987    3.5661    0.0000 C   0  0  0  0  0  0  0  0  0  0  0  0
    7.1008    4.5621    0.0000 C   0  0  0  0  0  0  0  0  0  0  0  0
    6.4931    5.3727    0.0000 C   0  0  0  0  0  0  0  0  0  0  0  0
    5.6207    2.7394    0.0000 C   0  0  0  0  0  0  0  0  0  0  0  0
    4.9532    3.8956    0.0000 C   0  0  0  0  0  0  0  0  0  0  0  0
    4.8669    3.0751    0.0000 C   0  0  0  0  0  0  0  0  0  0  0  0
    9.1132    3.9787    0.0000 C   0  0  0  0  0  0  0  0  0  0  0  0
    8.8112    2.8516    0.0000 C   0  0  0  0  0  0  0  0  0  0  0  0
    5.7922    1.9325    0.0000 C   0  0  0  0  0  0  0  0  0  0  0  0
    5.1791    1.3804    0.0000 C   0  0  0  0  0  0  0  0  0  0  0  0
    4.7374    0.0213    0.0000 C   0  0  0  0  0  0  0  0  0  0  0  0
    4.9090   -0.7856    0.0000 C   0  0  0  0  0  0  0  0  0  0  0  0
    3.7438   -0.7245    0.0000 C   0  0  0  0  0  0  0  0  0  0  0  0
    4.0409   -2.1223    0.0000 C   0  0  0  0  0  0  0  0  0  0  0  0
    5.0806   -1.5926    0.0000 C   0  0  0  0  0  0  0  0  0  0  0  0
    2.9368   -0.8961    0.0000 C   0  0  0  0  0  0  0  0  0  0  0  0
    3.2339   -2.2939    0.0000 C   0  0  0  0  0  0  0  0  0  0  0  0
    5.2521   -2.3997    0.0000 C   0  0  0  0  0  0  0  0  0  0  0  0
    6.0367   -2.6546    0.0000 C   0  0  0  0  0  0  0  0  0  0  0  0
    4.6389   -2.9517    0.0000 C   0  0  0  0  0  0  0  0  0  0  0  0
    6.2083   -3.4616    0.0000 C   0  0  0  0  0  0  0  0  0  0  0  0
    4.8105   -3.7587    0.0000 C   0  0  0  0  0  0  0  0  0  0  0  0
    5.5952   -4.0137    0.0000 C   0  0  0  0  0  0  0  0  0  0  0  0
    7.6061   -3.1645    0.0000 C   0  0  0  0  0  0  0  0  0  0  0  0
    5.1536   -5.3727    0.0000 C   0  0  0  0  0  0  0  0  0  0  0  0
  1 27  1  0
  2 17  1  0
  2 18  1  0
  3 23  1  0
  3 24  1  0
  4 28  1  0
  4 31  1  0
  5 30  1  0
  5 32  1  0
  6 19  1  0
  6 20  1  0
  6 21  1  0
  6 22  1  0
  7  8  1  0
  7 10  1  0
  7 11  1  0
  8  9  1  0
  8 14  1  0
  8 15  1  0
  9 10  1  0
  9 12  1  0
 11 13  1  0
 11 16  1  0
 12 13  1  0
 16 17  1  0
 18 19  1  0
 20 23  1  0
 21 24  1  0
 22 25  1  0
 25 26  2  0
 25 27  1  0
 26 28  1  0
 27 29  2  0
 28 30  2  0
 29 30  1  0
M  CHG  1   6   1
M  END
$$$$
