
     RDKit          2D

 15 15  0  0  0  0  0  0  0  0999 V2000
   -3.2128   -0.8246    0.0000 C   0  0  0  0  0  0  0  0  0  0  0  0
   -3.2128    0.0021    0.0000 C   0  0  0  0  0  0  0  0  0  0  0  0
   -2.4952    0.4154    0.0000 C   0  0  0  0  0  0  0  0  0  0  0  0
   -1.7817    0.0021    0.0000 C   0  0  0  0  0  0  0  0  0  0  0  0
   -1.7817   -0.8246    0.0000 C   0  0  0  0  0  0  0  0  0  0  0  0
   -2.4952   -1.2379    0.0000 N   0  0  0  0  0  0  0  0  0  0  0  0
   -1.0709    0.4112    0.0000 C   0  0  0  0  0  0  0  0  0  0  0  0
   -0.3569   -0.0020    0.0000 N   0  0  0  0  0  0  0  0  0  0  0  0
    0.3569    0.4071    0.0000 C   0  0  0  0  0  0  0  0  0  0  0  0
    1.0709   -0.0061    0.0000 C   0  0  0  0  0  0  0  0  0  0  0  0
    1.7848    0.4029    0.0000 O   0  0  0  0  0  0  0  0  0  0  0  0
    2.4989   -0.0104    0.0000 N   0  0  0  0  0  0  0  0  0  0  0  0
    3.2128    0.3987    0.0000 O   0  0  0  0  0  0  0  0  0  0  0  0
   -1.0699    1.2379    0.0000 O   0  0  0  0  0  0  0  0  0  0  0  0
    2.4971   -0.8370    0.0000 O   0  0  0  0  0  0  0  0  0  0  0  0
  1  2  2  0
  7  8  1  0
  2  3  1  0
  8  9  1  0
  3  4  2  0
  9 10  1  0
  4  5  1  0
 10 11  1  0
  5  6  2  0
 11 12  1  0
  6  1  1  0
 12 13  1  0
  7 14  2  0
  4  7  1  0
 12 15  2  0
M  CHG  2  12   1  13  -1
M  END
$$$$
