
     RDKit          2D

 32 36  0  0  1  0  0  0  0  0999 V2000
   -3.3206   -1.3919    0.0000 C   0  0  0  0  0  0  0  0  0  0  0  0
   -2.0806   -0.3579    0.0000 C   0  0  0  0  0  0  0  0  0  0  0  0
   -4.1256   -0.2112    0.0000 C   0  0  0  0  0  0  0  0  0  0  0  0
    3.9933    0.8250    0.0000 C   0  0  0  0  0  0  0  0  0  0  0  0
   -4.1872    0.6114    0.0000 C   0  0  0  0  0  0  0  0  0  0  0  0
    3.2789    1.2375    0.0000 C   0  0  0  0  0  0  0  0  0  0  0  0
   -0.6923   -0.5143    0.0000 C   0  0  0  0  0  0  0  0  0  0  0  0
   -3.2507    3.1956    0.0000 C   0  0  0  0  0  0  0  0  0  0  0  0
   -4.0734    3.1340    0.0000 C   0  0  0  0  0  0  0  0  0  0  0  0
    0.1119   -0.3307    0.0000 C   0  0  0  0  0  0  0  0  0  0  0  0
    0.1119    1.1557    0.0000 C   0  0  0  0  0  0  0  0  0  0  0  0
   -0.6923    1.3393    0.0000 C   0  0  0  0  0  0  0  0  0  0  0  0
   -2.7006   -0.1044    0.0000 C   0  0  0  0  0  0  0  0  0  0  0  0
    3.2789   -0.4125    0.0000 C   0  0  0  0  0  0  0  0  0  0  0  0
   -3.3823   -0.5692    0.0000 C   0  0  0  0  0  0  0  0  0  0  0  0
   -1.3373    0.0000    0.0000 C   0  0  0  0  0  0  0  0  0  0  0  0
    3.9933    0.0000    0.0000 C   0  0  0  0  0  0  0  0  0  0  0  0
   -2.7623    0.7182    0.0000 C   0  0  0  0  0  0  0  0  0  0  0  0
    2.5644    0.0000    0.0000 C   0  0  0  0  0  0  0  0  0  0  0  0
   -3.5056    1.0761    0.0000 C   0  0  0  0  0  0  0  0  0  0  0  0
    2.5644    0.8250    0.0000 C   0  0  0  0  0  0  0  0  0  0  0  0
   -2.0806    1.1829    0.0000 C   0  0  0  0  0  0  0  0  0  0  0  0
    1.2949    0.4125    0.0000 C   0  0  0  0  0  0  0  0  0  0  0  0
    4.7078   -0.4125    0.0000 Cl  0  0  0  0  0  0  0  0  0  0  0  0
   -2.9379    2.4323    0.0000 N   0  0  0  0  0  0  0  0  0  0  0  0
   -4.2690    2.3325    0.0000 N   0  0  0  0  0  0  0  0  0  0  0  0
    1.7798   -0.2549    0.0000 N   0  0  0  0  0  0  0  0  0  0  0  0
    0.4699    0.4125    0.0000 N   0  0  0  0  0  0  0  0  0  0  0  0
   -1.3373    0.8250    0.0000 N   0  0  0  0  0  0  0  0  0  0  0  0
   -3.5672    1.8988    0.0000 N   0  0  0  0  0  0  0  0  0  0  0  0
   -2.1423    2.0056    0.0000 O   0  0  0  0  0  0  0  0  0  0  0  0
    1.7798    1.0799    0.0000 O   0  0  0  0  0  0  0  0  0  0  0  0
  5  3  2  0
  6  4  2  0
  9  8  1  0
 10  7  1  0
 12 11  1  0
 15  1  1  0
 15  3  1  0
 15 13  2  0
 16  2  1  1
 16  7  1  0
 17  4  1  0
 17 14  2  0
 18 13  1  0
 19 14  1  0
 20  5  1  0
 20 18  2  0
 21  6  1  0
 21 19  2  0
 22 18  1  0
 24 17  1  0
 25  8  2  0
 26  9  2  0
 27 19  1  0
 27 23  2  0
 28 10  1  0
 28 11  1  0
 28 23  1  0
 29 12  1  0
 29 16  1  0
 29 22  1  0
 30 20  1  0
 30 25  1  0
 30 26  1  0
 31 22  2  0
 32 21  1  0
 32 23  1  0
M  END
$$$$
