
     RDKit          2D

  5  4  0  0  0  0  0  0  0  0999 V2000
   -0.4808   -0.0580    0.0000 Cl  0  0  0  0  0  0  0  0  0  0  0  0
    0.2294   -0.4735    0.0000 O   0  0  0  0  0  0  0  0  0  0  0  0
   -1.1959   -0.4735    0.0000 O   0  0  0  0  0  0  0  0  0  0  0  0
   -0.0797    0.6572    0.0000 O   0  0  0  0  0  0  0  0  0  0  0  0
   -0.8964    0.6572    0.0000 O   0  0  0  0  0  0  0  0  0  0  0  0
  2  1  1  0
  3  1  1  0
  4  1  1  0
  5  1  1  0
M  CHG  5   1   3   2  -1   3  -1   4  -1   5  -1
M  END
$$$$
