
     RDKit          2D

 17 18  0  0  0  0  0  0  0  0999 V2000
   -2.5162    0.2062    0.0000 C   0  0  0  0  0  0  0  0  0  0  0  0
   -2.5162    1.0312    0.0000 C   0  0  0  0  0  0  0  0  0  0  0  0
   -1.8150    1.4437    0.0000 C   0  0  0  0  0  0  0  0  0  0  0  0
   -1.0725    1.0312    0.0000 C   0  0  0  0  0  0  0  0  0  0  0  0
   -1.0725    0.2062    0.0000 C   0  0  0  0  0  0  0  0  0  0  0  0
   -1.8150   -0.2062    0.0000 C   0  0  0  0  0  0  0  0  0  0  0  0
   -0.3712   -0.2062    0.0000 O   0  0  0  0  0  0  0  0  0  0  0  0
    0.3712    0.2062    0.0000 C   0  0  0  0  0  0  0  0  0  0  0  0
    1.0725   -0.2062    0.0000 C   0  0  0  0  0  0  0  0  0  0  0  0
   -0.3712    1.4437    0.0000 O   0  0  0  0  0  0  0  0  0  0  0  0
    0.3712    1.0312    0.0000 C   0  0  0  0  0  0  0  0  0  0  0  0
    1.0725    1.4437    0.0000 C   0  0  0  0  0  0  0  0  0  0  0  0
    1.7737    0.2062    0.0000 O   0  0  0  0  0  0  0  0  0  0  0  0
    2.5162   -0.2062    0.0000 C   0  0  0  0  0  0  0  0  0  0  0  0
    2.5162   -1.0312    0.0000 C   0  0  0  0  0  0  0  0  0  0  0  0
    1.7737   -1.4437    0.0000 N   0  0  0  0  0  0  0  0  0  0  0  0
    1.0725   -1.0312    0.0000 C   0  0  0  0  0  0  0  0  0  0  0  0
  1  2  2  0
  2  3  1  0
  3  4  2  0
  4  5  1  0
  5  6  2  0
  1  6  1  0
  5  7  1  0
  7  8  1  0
  8  9  1  0
  4 10  1  0
 10 11  1  0
 11 12  1  0
  9 13  1  0
 13 14  1  0
 14 15  1  0
 15 16  1  0
 16 17  1  0
  9 17  1  0
M  END
$$$$
