
     RDKit          2D

 53 58  0  0  0  0  0  0  0  0999 V2000
    0.1502    0.2650    0.0000 C   0  0  0  0  0  0  0  0  0  0  0  0
    0.9349    0.0079    0.0000 C   0  0  0  0  0  0  0  0  0  0  0  0
    1.5470    0.5610    0.0000 C   0  0  0  0  0  0  0  0  0  0  0  0
    2.3317    0.3082    0.0000 C   0  0  0  0  0  0  0  0  0  0  0  0
   -0.4661   -0.2878    0.0000 S   0  0  0  0  0  0  0  0  0  0  0  0
    0.0869   -0.9001    0.0000 O   0  0  0  0  0  0  0  0  0  0  0  0
   -1.0150    0.3243    0.0000 O   0  0  0  0  0  0  0  0  0  0  0  0
   -1.0783   -0.8409    0.0000 O   0  0  0  0  0  0  0  0  0  0  0  0
    2.9439    0.8570    0.0000 N   0  0  0  0  0  0  0  0  0  0  0  0
    2.8590    1.6792    0.0000 C   0  0  0  0  0  0  0  0  0  0  0  0
    3.6135    2.0126    0.0000 C   0  0  0  0  0  0  0  0  0  0  0  0
    4.1623    1.4005    0.0000 C   0  0  0  0  0  0  0  0  0  0  0  0
    4.9873    1.4005    0.0000 C   0  0  0  0  0  0  0  0  0  0  0  0
    5.3998    0.6888    0.0000 C   0  0  0  0  0  0  0  0  0  0  0  0
    4.9873   -0.0269    0.0000 C   0  0  0  0  0  0  0  0  0  0  0  0
    4.1623   -0.0269    0.0000 C   0  0  0  0  0  0  0  0  0  0  0  0
    3.7499    0.6888    0.0000 C   0  0  0  0  0  0  0  0  0  0  0  0
    6.2248    0.6888    0.0000 C   0  0  0  0  0  0  0  0  0  0  0  0
    6.6372    1.4005    0.0000 C   0  0  0  0  0  0  0  0  0  0  0  0
    6.2248    2.1162    0.0000 C   0  0  0  0  0  0  0  0  0  0  0  0
    5.3998    2.1162    0.0000 C   0  0  0  0  0  0  0  0  0  0  0  0
    3.2010    2.7285    0.0000 C   0  0  0  0  0  0  0  0  0  0  0  0
    4.2788    2.5015    0.0000 C   0  0  0  0  0  0  0  0  0  0  0  0
    2.1433    2.0918    0.0000 C   0  0  0  0  0  0  0  0  0  0  0  0
    1.4316    1.6792    0.0000 C   0  0  0  0  0  0  0  0  0  0  0  0
    0.7158    2.0918    0.0000 C   0  0  0  0  0  0  0  0  0  0  0  0
    0.0000    1.6792    0.0000 C   0  0  0  0  0  0  0  0  0  0  0  0
   -0.7158    2.0918    0.0000 C   0  0  0  0  0  0  0  0  0  0  0  0
   -1.4274    1.6792    0.0000 C   0  0  0  0  0  0  0  0  0  0  0  0
   -2.1433    2.0918    0.0000 C   0  0  0  0  0  0  0  0  0  0  0  0
   -2.9439    0.8570    0.0000 N   0  0  0  0  0  0  0  0  0  0  0  0
   -2.8549    1.6792    0.0000 C   0  0  0  0  0  0  0  0  0  0  0  0
   -3.6093    2.0126    0.0000 C   0  0  0  0  0  0  0  0  0  0  0  0
   -4.1623    1.4005    0.0000 C   0  0  0  0  0  0  0  0  0  0  0  0
   -4.9873    1.4005    0.0000 C   0  0  0  0  0  0  0  0  0  0  0  0
   -5.3998    0.6888    0.0000 C   0  0  0  0  0  0  0  0  0  0  0  0
   -4.9873   -0.0269    0.0000 C   0  0  0  0  0  0  0  0  0  0  0  0
   -4.1623   -0.0269    0.0000 C   0  0  0  0  0  0  0  0  0  0  0  0
   -3.7499    0.6888    0.0000 C   0  0  0  0  0  0  0  0  0  0  0  0
   -6.2248    0.6888    0.0000 C   0  0  0  0  0  0  0  0  0  0  0  0
   -6.6372    1.4005    0.0000 C   0  0  0  0  0  0  0  0  0  0  0  0
   -6.2248    2.1162    0.0000 C   0  0  0  0  0  0  0  0  0  0  0  0
   -5.3998    2.1162    0.0000 C   0  0  0  0  0  0  0  0  0  0  0  0
   -2.3317    0.3082    0.0000 C   0  0  0  0  0  0  0  0  0  0  0  0
   -2.5040   -0.5019    0.0000 C   0  0  0  0  0  0  0  0  0  0  0  0
   -3.2845   -0.7548    0.0000 C   0  0  0  0  0  0  0  0  0  0  0  0
   -3.4569   -1.5608    0.0000 C   0  0  0  0  0  0  0  0  0  0  0  0
   -2.8730   -2.1446    0.0000 S   0  0  0  0  0  0  0  0  0  0  0  0
   -3.4569   -2.7285    0.0000 O   0  0  0  0  0  0  0  0  0  0  0  0
   -2.2891   -1.5608    0.0000 O   0  0  0  0  0  0  0  0  0  0  0  0
   -2.2891   -2.7285    0.0000 O   0  0  0  0  0  0  0  0  0  0  0  0
   -3.1968    2.7285    0.0000 C   0  0  0  0  0  0  0  0  0  0  0  0
   -4.2788    2.5015    0.0000 C   0  0  0  0  0  0  0  0  0  0  0  0
  1  2  1  0
  2  3  1  0
  3  4  1  0
  5  6  2  0
  5  7  2  0
  5  8  1  0
  1  5  1  0
  9 10  2  0
 10 11  1  0
 11 12  1  0
 12 13  2  0
 13 14  1  0
 14 15  2  0
 15 16  1  0
 16 17  2  0
  9 17  1  0
 12 17  1  0
 18 19  2  0
 19 20  1  0
 20 21  2  0
 13 21  1  0
 14 18  1  0
 11 22  1  0
 11 23  1  0
 24 25  2  0
 25 26  1  0
 26 27  2  0
 27 28  1  0
 28 29  2  0
 29 30  1  0
 31 32  1  0
 32 33  1  0
 33 34  1  0
 34 35  2  0
 35 36  1  0
 36 37  2  0
 37 38  1  0
 38 39  2  0
 31 39  1  0
 34 39  1  0
 40 41  2  0
 41 42  1  0
 42 43  2  0
 35 43  1  0
 36 40  1  0
 44 45  1  0
 45 46  1  0
 46 47  1  0
 48 49  2  0
 48 50  2  0
 48 51  1  0
 47 48  1  0
 31 44  1  0
 33 52  1  0
 33 53  1  0
 30 32  2  0
 10 24  1  0
  4  9  1  0
M  CHG  1   9   1
M  END
$$$$
