
     RDKit          2D

 25 26  0  0  0  0  0  0  0  0999 V2000
    0.5984   -1.0216    0.0000 C   0  0  0  0  0  0  0  0  0  0  0  0
   -4.4029    1.0409    0.0000 C   0  0  0  0  0  0  0  0  0  0  0  0
   -4.4029    0.2159    0.0000 C   0  0  0  0  0  0  0  0  0  0  0  0
   -3.6884    1.4534    0.0000 C   0  0  0  0  0  0  0  0  0  0  0  0
    2.9206   -1.1886    0.0000 C   0  0  0  0  0  0  0  0  0  0  0  0
   -3.6884   -0.1966    0.0000 C   0  0  0  0  0  0  0  0  0  0  0  0
   -2.9739    1.0409    0.0000 C   0  0  0  0  0  0  0  0  0  0  0  0
    3.3331   -0.4741    0.0000 C   0  0  0  0  0  0  0  0  0  0  0  0
   -2.2595   -0.1966    0.0000 C   0  0  0  0  0  0  0  0  0  0  0  0
   -1.5450    0.2159    0.0000 C   0  0  0  0  0  0  0  0  0  0  0  0
    2.1136   -1.0171    0.0000 C   0  0  0  0  0  0  0  0  0  0  0  0
    0.5984   -0.1966    0.0000 C   0  0  0  0  0  0  0  0  0  0  0  0
   -2.9739    0.2159    0.0000 C   0  0  0  0  0  0  0  0  0  0  0  0
   -0.8305   -0.1966    0.0000 C   0  0  0  0  0  0  0  0  0  0  0  0
    2.7810    0.1390    0.0000 C   0  0  0  0  0  0  0  0  0  0  0  0
    1.3129    0.2159    0.0000 C   0  0  0  0  0  0  0  0  0  0  0  0
   -0.8305   -1.0216    0.0000 C   0  0  0  0  0  0  0  0  0  0  0  0
    2.9526    0.9460    0.0000 C   0  0  0  0  0  0  0  0  0  0  0  0
   -0.1161    0.2159    0.0000 N   0  0  0  0  0  0  0  0  0  0  0  0
    2.0274   -0.1966    0.0000 N   0  0  0  0  0  0  0  0  0  0  0  0
    1.3129    1.0409    0.0000 O   0  0  0  0  0  0  0  0  0  0  0  0
   -0.1161   -1.4341    0.0000 O   0  0  0  0  0  0  0  0  0  0  0  0
   -1.5450   -1.4341    0.0000 O   0  0  0  0  0  0  0  0  0  0  0  0
    2.3395    1.4980    0.0000 O   0  0  0  0  0  0  0  0  0  0  0  0
    3.7372    1.2009    0.0000 O   0  0  0  0  0  0  0  0  0  0  0  0
  3  2  2  0
  4  2  1  0
  6  3  1  0
  7  4  2  0
  8  5  1  0
 10  9  1  0
 11  5  1  0
 12  1  1  6
 13  6  2  0
 13  7  1  0
 13  9  1  0
 14 10  1  6
 15  8  1  0
 16 12  1  0
 17 14  1  0
 15 18  1  6
 19 12  1  0
 14 19  1  0
 20 11  1  0
 20 15  1  0
 20 16  1  0
 21 16  2  0
 22 17  2  0
 23 17  1  0
 24 18  2  0
 25 18  1  0
M  END
$$$$
