
     RDKit          2D

 36 38  0  0  0  0  0  0  0  0999 V2000
   -1.5065    1.8642    0.0000 C   0  0  0  0  0  0  0  0  0  0  0  0
   -1.5065    1.0392    0.0000 C   0  0  0  0  0  0  0  0  0  0  0  0
   -0.7903    0.6268    0.0000 C   0  0  0  0  0  0  0  0  0  0  0  0
   -0.0784    1.0392    0.0000 C   0  0  0  0  0  0  0  0  0  0  0  0
   -0.0784    1.8642    0.0000 C   0  0  0  0  0  0  0  0  0  0  0  0
   -0.7903    2.2767    0.0000 N   0  0  0  0  0  0  0  0  0  0  0  0
   -0.7893   -0.1981    0.0000 C   0  0  0  0  0  0  0  0  0  0  0  0
   -1.4996   -0.6086    0.0000 C   0  0  0  0  0  0  0  0  0  0  0  0
   -1.4985   -1.4335    0.0000 C   0  0  0  0  0  0  0  0  0  0  0  0
   -0.7836   -1.8451    0.0000 C   0  0  0  0  0  0  0  0  0  0  0  0
   -0.0696   -1.4317    0.0000 C   0  0  0  0  0  0  0  0  0  0  0  0
   -0.0706   -0.6068    0.0000 C   0  0  0  0  0  0  0  0  0  0  0  0
    0.6453   -1.8433    0.0000 N   0  0  0  0  0  0  0  0  0  0  0  0
    0.6364    0.6274    0.0000 C   0  0  0  0  0  0  0  0  0  0  0  0
    0.6370   -0.1975    0.0000 O   0  0  0  0  0  0  0  0  0  0  0  0
    1.3503    1.0404    0.0000 O   0  0  0  0  0  0  0  0  0  0  0  0
    2.0651    0.6284    0.0000 C   0  0  0  0  0  0  0  0  0  0  0  0
    2.7793    1.0415    0.0000 C   0  0  0  0  0  0  0  0  0  0  0  0
    3.6015    1.0435    0.0000 C   0  0  0  0  0  0  0  0  0  0  0  0
    0.6364    2.2762    0.0000 C   0  0  0  0  0  0  0  0  0  0  0  0
   -2.2207    2.2771    0.0000 C   0  0  0  0  0  0  0  0  0  0  0  0
   -2.2207    0.6265    0.0000 C   0  0  0  0  0  0  0  0  0  0  0  0
   -2.9354    1.0386    0.0000 O   0  0  0  0  0  0  0  0  0  0  0  0
   -2.2203   -0.1984    0.0000 O   0  0  0  0  0  0  0  0  0  0  0  0
   -3.6496    0.6257    0.0000 C   0  0  0  0  0  0  0  0  0  0  0  0
   -4.3643    1.0379    0.0000 C   0  0  0  0  0  0  0  0  0  0  0  0
   -5.0784    0.6250    0.0000 O   0  0  0  0  0  0  0  0  0  0  0  0
    1.5242   -1.2649    0.0000 O   0  0  0  0  0  0  0  0  0  0  0  0
    0.6463   -2.6683    0.0000 O   0  0  0  0  0  0  0  0  0  0  0  0
    4.3140    1.4602    0.0000 C   0  0  0  0  0  0  0  0  0  0  0  0
    4.3509    2.2854    0.0000 C   0  0  0  0  0  0  0  0  0  0  0  0
   -5.7931    1.0370    0.0000 C   0  0  0  0  0  0  0  0  0  0  0  0
    5.0142    1.0130    0.0000 C   0  0  0  0  0  0  0  0  0  0  0  0
    5.7931    1.3958    0.0000 C   0  0  0  0  0  0  0  0  0  0  0  0
    5.7885    2.2210    0.0000 C   0  0  0  0  0  0  0  0  0  0  0  0
    5.0882    2.6683    0.0000 C   0  0  0  0  0  0  0  0  0  0  0  0
  3  4  1  0
 17 18  1  0
  4  5  2  0
 18 19  2  0
  5  6  1  0
  5 20  1  0
  7  8  2  0
  1 21  1  0
  8  9  1  0
  2 22  1  0
  9 10  2  0
 22 23  1  0
 10 11  1  0
 22 24  2  0
 11 12  2  0
 23 25  1  0
 12  7  1  0
 25 26  1  0
  6  1  1  0
 26 27  1  0
 11 13  1  0
 13 28  2  0
 13 29  1  0
  4 14  1  0
 19 30  1  0
  3  7  1  0
 14 15  2  0
  1  2  2  0
 14 16  1  0
  2  3  1  0
 31 30  2  0
 16 17  1  0
 27 32  1  0
 30 33  1  0
 33 34  2  0
 34 35  1  0
 35 36  2  0
 31 36  1  0
M  CHG  2  13   1  29  -1
M  END
$$$$
