
     RDKit          2D

 35 38  0  0  0  0  0  0  0  0999 V2000
   -2.8878    1.0313    0.0000 C   0  0  0  0  0  0  0  0  0  0  0  0
   -2.8878    1.8564    0.0000 C   0  0  0  0  0  0  0  0  0  0  0  0
   -2.1865    2.2690    0.0000 C   0  0  0  0  0  0  0  0  0  0  0  0
   -1.4439    1.8564    0.0000 C   0  0  0  0  0  0  0  0  0  0  0  0
   -1.4439    1.0313    0.0000 C   0  0  0  0  0  0  0  0  0  0  0  0
   -2.1865    0.6188    0.0000 C   0  0  0  0  0  0  0  0  0  0  0  0
   -0.7425    2.2690    0.0000 C   0  0  0  0  0  0  0  0  0  0  0  0
   -0.0412    1.8564    0.0000 C   0  0  0  0  0  0  0  0  0  0  0  0
   -0.0412    1.0313    0.0000 C   0  0  0  0  0  0  0  0  0  0  0  0
   -0.7425    0.6188    0.0000 C   0  0  0  0  0  0  0  0  0  0  0  0
    0.6601    0.6188    0.0000 C   0  0  0  0  0  0  0  0  0  0  0  0
    1.3614    1.0313    0.0000 C   0  0  0  0  0  0  0  0  0  0  0  0
    2.1040    0.6188    0.0000 C   0  0  0  0  0  0  0  0  0  0  0  0
    2.1040   -0.2062    0.0000 C   0  0  0  0  0  0  0  0  0  0  0  0
    1.4027   -0.6188    0.0000 C   0  0  0  0  0  0  0  0  0  0  0  0
    0.6601   -0.2062    0.0000 C   0  0  0  0  0  0  0  0  0  0  0  0
   -0.0412   -0.6188    0.0000 O   0  0  0  0  0  0  0  0  0  0  0  0
   -0.7425   -0.2062    0.0000 C   0  0  0  0  0  0  0  0  0  0  0  0
    1.4027   -1.4439    0.0000 C   0  0  0  0  0  0  0  0  0  0  0  0
    2.8053    1.0313    0.0000 N   0  0  0  0  0  0  0  0  0  0  0  0
    2.8053    1.8564    0.0000 C   0  0  0  0  0  0  0  0  0  0  0  0
    3.5479    2.2690    0.0000 C   0  0  0  0  0  0  0  0  0  0  0  0
    4.2492    1.8564    0.0000 C   0  0  0  0  0  0  0  0  0  0  0  0
    4.2492    1.0313    0.0000 N   0  0  0  0  0  0  0  0  0  0  0  0
    3.5479    0.6188    0.0000 C   0  0  0  0  0  0  0  0  0  0  0  0
    4.9918    2.2690    0.0000 O   0  0  0  0  0  0  0  0  0  0  0  0
    3.5479   -0.2062    0.0000 O   0  0  0  0  0  0  0  0  0  0  0  0
   -3.5891    2.2690    0.0000 N   0  0  0  0  0  0  0  0  0  0  0  0
   -4.2904    1.8564    0.0000 S   0  0  0  0  0  0  0  0  0  0  0  0
   -4.9918    2.2690    0.0000 C   0  0  0  0  0  0  0  0  0  0  0  0
   -4.7030    1.1138    0.0000 O   0  0  0  0  0  0  0  0  0  0  0  0
   -3.8779    1.1138    0.0000 O   0  0  0  0  0  0  0  0  0  0  0  0
    0.6881   -1.8564    0.0000 C   0  0  0  0  0  0  0  0  0  0  0  0
    2.1172   -1.8564    0.0000 C   0  0  0  0  0  0  0  0  0  0  0  0
    1.4027   -2.2690    0.0000 C   0  0  0  0  0  0  0  0  0  0  0  0
  1  2  2  0
  2  3  1  0
  3  4  2  0
  4  5  1  0
  5  6  2  0
  1  6  1  0
  4  7  1  0
  7  8  2  0
  8  9  1  0
  9 10  2  0
  5 10  1  0
  9 11  1  0
 11 12  2  0
 12 13  1  0
 13 14  2  0
 14 15  1  0
 15 16  2  0
 11 16  1  0
 16 17  1  0
 17 18  1  0
 15 19  1  0
 13 20  1  0
 20 21  1  0
 21 22  2  0
 22 23  1  0
 23 24  1  0
 24 25  1  0
 20 25  1  0
 23 26  2  0
 25 27  2  0
  2 28  1  0
 28 29  1  0
 29 30  1  0
 29 31  2  0
 29 32  2  0
 19 33  1  0
 19 34  1  0
 19 35  1  0
M  END
$$$$
