
     RDKit          2D

 28 29  0  0  0  0  0  0  0  0999 V2000
   -0.7105   -0.6928    0.0000 C   0  0  0  0  0  0  0  0  0  0  0  0
    0.0000   -1.1120    0.0000 C   0  0  0  0  0  0  0  0  0  0  0  0
   -1.4211   -1.1120    0.0000 C   0  0  0  0  0  0  0  0  0  0  0  0
   -0.7105    0.7283    0.0000 C   0  0  0  0  0  0  0  0  0  0  0  0
    0.0000   -1.9433    0.0000 C   0  0  0  0  0  0  0  0  0  0  0  0
    0.7105   -0.6928    0.0000 C   0  0  0  0  0  0  0  0  0  0  0  0
   -1.4211   -1.9433    0.0000 C   0  0  0  0  0  0  0  0  0  0  0  0
   -2.1317   -0.7354    0.0000 C   0  0  0  0  0  0  0  0  0  0  0  0
    0.0000    1.1475    0.0000 C   0  0  0  0  0  0  0  0  0  0  0  0
   -1.4211    1.1475    0.0000 C   0  0  0  0  0  0  0  0  0  0  0  0
   -0.7105   -2.3626    0.0000 N   0  0  0  0  0  0  0  0  0  0  0  0
    0.7105   -2.3626    0.0000 C   0  0  0  0  0  0  0  0  0  0  0  0
    1.4211   -1.1120    0.0000 O   0  0  0  0  0  0  0  0  0  0  0  0
    0.7105    0.1030    0.0000 O   0  0  0  0  0  0  0  0  0  0  0  0
   -2.1317   -2.3626    0.0000 C   0  0  0  0  0  0  0  0  0  0  0  0
   -2.8423   -1.1120    0.0000 O   0  0  0  0  0  0  0  0  0  0  0  0
   -2.1317    0.1030    0.0000 O   0  0  0  0  0  0  0  0  0  0  0  0
    0.0000    1.9433    0.0000 C   0  0  0  0  0  0  0  0  0  0  0  0
    0.7105    0.7283    0.0000 Cl  0  0  0  0  0  0  0  0  0  0  0  0
   -1.4211    1.9433    0.0000 C   0  0  0  0  0  0  0  0  0  0  0  0
    1.4211   -1.9433    0.0000 O   0  0  0  0  0  0  0  0  0  0  0  0
    2.1316   -0.6928    0.0000 C   0  0  0  0  0  0  0  0  0  0  0  0
   -3.5528   -0.7354    0.0000 C   0  0  0  0  0  0  0  0  0  0  0  0
   -0.7105    2.3626    0.0000 C   0  0  0  0  0  0  0  0  0  0  0  0
    2.1316   -2.3626    0.0000 C   0  0  0  0  0  0  0  0  0  0  0  0
    2.8423   -1.1120    0.0000 C   0  0  0  0  0  0  0  0  0  0  0  0
    2.8423   -1.9433    0.0000 C   0  0  0  0  0  0  0  0  0  0  0  0
    3.5528   -2.3626    0.0000 N   0  0  0  0  0  0  0  0  0  0  0  0
  1  2  1  0
  1  3  1  0
  1  4  1  6
  2  5  2  0
  2  6  1  0
  3  7  2  0
  3  8  1  0
  4  9  2  0
  4 10  1  0
  5 11  1  0
  5 12  1  0
  6 13  1  0
  6 14  2  0
  7 15  1  0
  7 11  1  0
  8 16  1  0
  8 17  2  0
  9 18  1  0
  9 19  1  0
 10 20  2  0
 12 21  1  0
 13 22  1  0
 16 23  1  0
 18 24  2  0
 20 24  1  0
 21 25  1  0
 22 26  1  0
 25 27  1  0
 27 28  1  0
M  END
$$$$
