 
     RDKit          2D

 17 17  0  0  0  0  0  0  0  0999 V2000
   24.3844  -17.6218    0.0000 C   0  0  0  0  0  0  0  0  0  0  0  0
   24.3844  -18.4583    0.0000 C   0  0  0  0  0  0  0  0  0  0  0  0
   25.1373  -18.8766    0.0000 C   0  0  0  0  0  0  0  0  0  0  0  0
   25.8483  -18.4583    0.0000 C   0  0  0  0  0  0  0  0  0  0  0  0
   25.8483  -17.6218    0.0000 C   0  0  0  0  0  0  0  0  0  0  0  0
   25.1373  -17.2035    0.0000 C   0  0  0  0  0  0  0  0  0  0  0  0
   26.5595  -18.8766    0.0000 C   0  0  0  0  0  0  0  0  0  0  0  0
   27.3123  -18.4583    0.0000 O   0  0  0  0  0  0  0  0  0  0  0  0
   28.0233  -18.8766    0.0000 C   0  0  0  0  0  0  0  0  0  0  0  0
   28.7345  -18.4583    0.0000 C   0  0  0  0  0  0  0  0  0  0  0  0
   29.4873  -18.8766    0.0000 N   0  0  0  0  0  0  0  0  0  0  0  0
   30.1983  -18.4583    0.0000 C   0  0  0  0  0  0  0  0  0  0  0  0
   26.5595  -19.7131    0.0000 O   0  0  0  0  0  0  0  0  0  0  0  0
   27.3123  -19.2948    0.0000 C   0  0  0  0  0  0  0  0  0  0  0  0
   28.7345  -19.2948    0.0000 C   0  0  0  0  0  0  0  0  0  0  0  0
   29.4873  -19.7131    0.0000 C   0  0  0  0  0  0  0  0  0  0  0  0
   27.3123  -20.1314    0.0000 C   0  0  0  0  0  0  0  0  0  0  0  0
  1  2  2  0
  2  3  1  0
  3  4  2  0
  4  5  1  0
  5  6  2  0
  1  6  1  0
  4  7  1  0
  7  8  1  0
  8  9  1  0
  9 10  1  0
 10 11  1  0
 11 12  1  0
  7 13  2  0
  9 14  1  0
  9 15  1  0
 11 16  1  0
 14 17  1  0
M  END
$$$$
