
     RDKit          2D

 19 21  0  0  0  0  0  0  0  0999 V2000
    1.0818   -0.4093    0.0000 C   0  0  0  0  0  0  0  0  0  0  0  0
    0.6693    0.3051    0.0000 C   0  0  0  0  0  0  0  0  0  0  0  0
    1.0818    1.0195    0.0000 C   0  0  0  0  0  0  0  0  0  0  0  0
    1.9068    1.0196    0.0000 C   0  0  0  0  0  0  0  0  0  0  0  0
    2.3193    0.3051    0.0000 C   0  0  0  0  0  0  0  0  0  0  0  0
    1.9068   -0.4093    0.0000 C   0  0  0  0  0  0  0  0  0  0  0  0
    3.1571    0.3050    0.0000 N   0  0  0  0  0  0  0  0  0  0  0  0
    3.5672    1.0150    0.0000 C   0  0  0  0  0  0  0  0  0  0  0  0
    2.3193   -1.1238    0.0000 F   0  0  0  0  0  0  0  0  0  0  0  0
   -0.1556    0.3050    0.0000 C   0  0  0  0  0  0  0  0  0  0  0  0
   -0.6333   -0.3526    0.0000 S   0  0  0  0  0  0  0  0  0  0  0  0
   -1.4065   -0.1014    0.0000 C   0  0  0  0  0  0  0  0  0  0  0  0
   -1.4066    0.7114    0.0000 C   0  0  0  0  0  0  0  0  0  0  0  0
   -0.6335    0.9626    0.0000 N   0  0  0  0  0  0  0  0  0  0  0  0
   -2.1209   -0.5140    0.0000 C   0  0  0  0  0  0  0  0  0  0  0  0
   -2.8354   -0.1016    0.0000 C   0  0  0  0  0  0  0  0  0  0  0  0
   -2.8355    0.7112    0.0000 C   0  0  0  0  0  0  0  0  0  0  0  0
   -2.1211    1.1238    0.0000 C   0  0  0  0  0  0  0  0  0  0  0  0
   -3.5672   -0.5243    0.0000 O   0  0  0  0  0  0  0  0  0  0  0  0
  1  2  2  0
  2  3  1  0
  3  4  2  0
  4  5  1  0
  5  6  2  0
  1  6  1  0
  5  7  1  0
  7  8  1  0
  6  9  1  0
  2 10  1  0
 10 11  1  0
 11 12  1  0
 12 13  2  0
 13 14  1  0
 10 14  2  0
 12 15  1  0
 15 16  2  0
 16 17  1  0
 17 18  2  0
 13 18  1  0
 16 19  1  0
M  ISO  1   9  18
M  END
$$$$
