
     RDKit          2D

 20 20  0  0  0  0  0  0  0  0999 V2000
   -0.0207   -0.2077    0.0000 C   0  0  0  0  0  0  0  0  0  0  0  0
   -0.7269   -0.6230    0.0000 C   0  0  0  0  0  0  0  0  0  0  0  0
   -0.0207    0.6230    0.0000 C   0  0  0  0  0  0  0  0  0  0  0  0
    0.6853   -0.6230    0.0000 O   0  0  0  0  0  0  0  0  0  0  0  0
   -1.4746   -0.2077    0.0000 C   0  0  0  0  0  0  0  0  0  0  0  0
   -0.7269   -1.4538    0.0000 C   0  0  0  0  0  0  0  0  0  0  0  0
   -0.7269    1.0385    0.0000 C   0  0  0  0  0  0  0  0  0  0  0  0
    1.4331   -0.2077    0.0000 C   0  0  0  0  0  0  0  0  0  0  0  0
   -1.4746    0.6230    0.0000 C   0  0  0  0  0  0  0  0  0  0  0  0
   -0.7269    1.8693    0.0000 C   0  0  0  0  0  0  0  0  0  0  0  0
    2.1392   -0.6230    0.0000 C   0  0  0  0  0  0  0  0  0  0  0  0
   -2.1808    1.0385    0.0000 O   0  0  0  0  0  0  0  0  0  0  0  0
    2.8870   -0.2077    0.0000 N   0  0  0  0  0  0  0  0  0  0  0  0
   -2.8870    0.6230    0.0000 C   0  0  0  0  0  0  0  0  0  0  0  0
   -3.5932    1.0385    0.0000 C   0  0  0  0  0  0  0  0  0  0  0  0
   -2.8870   -0.2077    0.0000 O   0  0  0  0  0  0  0  0  0  0  0  0
    2.8870    0.6230    0.0000 C   0  0  0  0  0  0  0  0  0  0  0  0
    3.5932   -0.6230    0.0000 C   0  0  0  0  0  0  0  0  0  0  0  0
   -1.4331   -1.8693    0.0000 C   0  0  0  0  0  0  0  0  0  0  0  0
   -0.0207   -1.8693    0.0000 C   0  0  0  0  0  0  0  0  0  0  0  0
  2  5  1  0
  2  6  1  0
  3  7  2  0
  4  8  1  0
  5  9  2  0
  7 10  1  0
  8 11  1  0
  9 12  1  0
 11 13  1  0
 12 14  1  0
 14 15  1  0
 14 16  2  0
  7  9  1  0
 13 17  1  0
 13 18  1  0
  1  2  2  0
  6 19  1  0
  1  3  1  0
  6 20  1  0
  1  4  1  0
M  END
$$$$
