
     RDKit          2D

 33 35  0  0  0  0  0  0  0  0999 V2000
   -0.7739   -0.2040    0.0000 P   0  0  0  0  0  0  0  0  0  0  0  0
   -1.5138    0.2040    0.0000 O   0  0  0  0  0  0  0  0  0  0  0  0
    0.5867   -0.2040    0.0000 O   0  0  0  0  0  0  0  0  0  0  0  0
   -0.3656    0.5358    0.0000 O   0  0  0  0  0  0  0  0  0  0  0  0
   -2.8490   -1.7349    0.0000 O   0  0  0  0  0  0  0  0  0  0  0  0
   -2.1516   -2.9681    0.0000 O   0  0  0  0  0  0  0  0  0  0  0  0
    2.0241    0.6208    0.0000 N   0  0  0  0  0  0  0  0  0  0  0  0
    2.0241    1.9731    0.0000 N   0  0  0  0  0  0  0  0  0  0  0  0
    3.5550    0.4507    0.0000 N   0  0  0  0  0  0  0  0  0  0  0  0
    4.2522    1.7264    0.0000 N   0  0  0  0  0  0  0  0  0  0  0  0
   -1.4372   -0.9099    0.0000 N   0  0  0  0  0  0  0  0  0  0  0  0
    3.5550    2.9681    0.0000 N   0  0  0  0  0  0  0  0  0  0  0  0
    2.8066    0.8674    0.0000 C   0  0  0  0  0  0  0  0  0  0  0  0
    2.8066    1.7264    0.0000 C   0  0  0  0  0  0  0  0  0  0  0  0
    3.5550    2.1431    0.0000 C   0  0  0  0  0  0  0  0  0  0  0  0
    1.5734    1.2757    0.0000 C   0  0  0  0  0  0  0  0  0  0  0  0
    2.0241   -0.2040    0.0000 C   0  0  0  0  0  0  0  0  0  0  0  0
    1.3267   -0.6207    0.0000 C   0  0  0  0  0  0  0  0  0  0  0  0
   -0.0340   -0.6207    0.0000 C   0  0  0  0  0  0  0  0  0  0  0  0
    4.2522    0.8674    0.0000 C   0  0  0  0  0  0  0  0  0  0  0  0
   -1.4372   -1.7349    0.0000 C   0  0  0  0  0  0  0  0  0  0  0  0
   -2.3387    0.2040    0.0000 C   0  0  0  0  0  0  0  0  0  0  0  0
   -2.1516   -2.1431    0.0000 C   0  0  0  0  0  0  0  0  0  0  0  0
   -2.7555    0.9184    0.0000 C   0  0  0  0  0  0  0  0  0  0  0  0
   -2.7555   -0.5102    0.0000 C   0  0  0  0  0  0  0  0  0  0  0  0
    1.3267   -1.4031    0.0000 C   0  0  0  0  0  0  0  0  0  0  0  0
   -0.7228   -2.1431    0.0000 C   0  0  0  0  0  0  0  0  0  0  0  0
   -3.5805    0.9184    0.0000 C   0  0  0  0  0  0  0  0  0  0  0  0
   -3.5805   -0.5102    0.0000 C   0  0  0  0  0  0  0  0  0  0  0  0
   -3.9887    0.2040    0.0000 C   0  0  0  0  0  0  0  0  0  0  0  0
   -3.5549   -2.1431    0.0000 C   0  0  0  0  0  0  0  0  0  0  0  0
   -4.2522   -1.7349    0.0000 C   0  0  0  0  0  0  0  0  0  0  0  0
   -3.5549   -2.9681    0.0000 C   0  0  0  0  0  0  0  0  0  0  0  0
  1  2  1  0
  1  4  2  0
  1 11  1  0
  1 19  1  1
  2 22  1  0
  3 18  1  0
  3 19  1  0
  5 23  1  0
  5 31  1  0
  6 23  2  0
  7 13  1  0
  7 16  1  0
  7 17  1  0
  8 14  1  0
  8 16  2  0
  9 13  1  0
  9 20  2  0
 10 15  2  0
 10 20  1  0
 11 21  1  0
 12 15  1  0
 13 14  2  0
 14 15  1  0
 17 18  1  0
 18 26  1  1
 21 23  1  0
 21 27  1  1
 22 24  2  0
 22 25  1  0
 24 28  1  0
 25 29  2  0
 28 30  2  0
 29 30  1  0
 31 32  1  0
 31 33  1  0
M  END
$$$$
