
     RDKit          2D

 25 28  0  0  0  0  0  0  0  0999 V2000
   -0.9296   -0.6218    0.0000 O   0  0  0  0  0  0  0  0  0  0  0  0
    0.5172   -2.2719    0.0000 O   0  0  0  0  0  0  0  0  0  0  0  0
   -0.2278    2.2719    0.0000 O   0  0  0  0  0  0  0  0  0  0  0  0
    3.0785   -1.0220    0.0000 O   0  0  0  0  0  0  0  0  0  0  0  0
   -0.9296   -2.2719    0.0000 N   0  0  0  0  0  0  0  0  0  0  0  0
   -0.2278   -1.0343    0.0000 C   0  0  0  0  0  0  0  0  0  0  0  0
   -0.2278   -1.8594    0.0000 C   0  0  0  0  0  0  0  0  0  0  0  0
    0.5972   -1.0343    0.0000 C   0  0  0  0  0  0  0  0  0  0  0  0
   -0.2278   -0.2031    0.0000 C   0  0  0  0  0  0  0  0  0  0  0  0
   -1.6315   -1.0343    0.0000 C   0  0  0  0  0  0  0  0  0  0  0  0
   -1.6315   -1.8594    0.0000 C   0  0  0  0  0  0  0  0  0  0  0  0
    0.4740    0.2093    0.0000 C   0  0  0  0  0  0  0  0  0  0  0  0
    1.0529   -1.7363    0.0000 C   0  0  0  0  0  0  0  0  0  0  0  0
   -0.9296    0.2093    0.0000 C   0  0  0  0  0  0  0  0  0  0  0  0
    1.0096   -0.2893    0.0000 C   0  0  0  0  0  0  0  0  0  0  0  0
   -2.3765   -0.6218    0.0000 C   0  0  0  0  0  0  0  0  0  0  0  0
   -2.3765   -2.2719    0.0000 C   0  0  0  0  0  0  0  0  0  0  0  0
    0.4740    1.0343    0.0000 C   0  0  0  0  0  0  0  0  0  0  0  0
    1.8779   -1.7363    0.0000 C   0  0  0  0  0  0  0  0  0  0  0  0
   -0.9296    1.0343    0.0000 C   0  0  0  0  0  0  0  0  0  0  0  0
    1.8410   -0.2893    0.0000 C   0  0  0  0  0  0  0  0  0  0  0  0
   -0.2278    1.4468    0.0000 C   0  0  0  0  0  0  0  0  0  0  0  0
    2.2534   -1.0343    0.0000 C   0  0  0  0  0  0  0  0  0  0  0  0
   -3.0785   -1.0343    0.0000 C   0  0  0  0  0  0  0  0  0  0  0  0
   -3.0785   -1.8594    0.0000 C   0  0  0  0  0  0  0  0  0  0  0  0
  1  6  1  0
  1 10  1  0
  2  7  2  0
  3 22  1  0
  4 23  1  0
  5  7  1  0
  5 11  1  0
  6  7  1  0
  6  8  1  0
  6  9  1  0
  8 13  2  0
  8 15  1  0
  9 12  2  0
  9 14  1  0
 10 11  2  0
 10 16  1  0
 11 17  1  0
 12 18  1  0
 13 19  1  0
 14 20  2  0
 15 21  2  0
 16 24  2  0
 17 25  2  0
 18 22  2  0
 19 23  2  0
 20 22  1  0
 21 23  1  0
 24 25  1  0
M  END
$$$$
