
     RDKit          2D

 27 27  0  0  0  0  0  0  0  0999 V2000
   -2.5803   -0.4124    0.0000 C   0  0  0  0  0  0  0  0  0  0  0  0
   -2.5803    0.4125    0.0000 C   0  0  0  0  0  0  0  0  0  0  0  0
   -3.3649    0.6674    0.0000 C   0  0  0  0  0  0  0  0  0  0  0  0
   -3.8498    0.0000    0.0000 C   0  0  0  0  0  0  0  0  0  0  0  0
   -3.3649   -0.6673    0.0000 C   0  0  0  0  0  0  0  0  0  0  0  0
   -3.6176    1.4450    0.0000 O   0  0  0  0  0  0  0  0  0  0  0  0
   -3.6176   -1.4450    0.0000 O   0  0  0  0  0  0  0  0  0  0  0  0
   -1.8658    0.8250    0.0000 C   0  0  0  0  0  0  0  0  0  0  0  0
   -1.1513    0.4125    0.0000 C   0  0  0  0  0  0  0  0  0  0  0  0
   -0.4369    0.8250    0.0000 C   0  0  0  0  0  0  0  0  0  0  0  0
    0.2775    0.4125    0.0000 C   0  0  0  0  0  0  0  0  0  0  0  0
    0.9920    0.8250    0.0000 C   0  0  0  0  0  0  0  0  0  0  0  0
    1.7064    0.4125    0.0000 C   0  0  0  0  0  0  0  0  0  0  0  0
    2.4209    0.8250    0.0000 C   0  0  0  0  0  0  0  0  0  0  0  0
    3.1354    0.4125    0.0000 O   0  0  0  0  0  0  0  0  0  0  0  0
   -1.8658   -0.8249    0.0000 C   0  0  0  0  0  0  0  0  0  0  0  0
   -1.1513   -0.4124    0.0000 C   0  0  0  0  0  0  0  0  0  0  0  0
   -0.4369   -0.8249    0.0000 C   0  0  0  0  0  0  0  0  0  0  0  0
    0.2775   -0.4124    0.0000 C   0  0  0  0  0  0  0  0  0  0  0  0
    0.9920   -0.8249    0.0000 C   0  0  0  0  0  0  0  0  0  0  0  0
    1.7064   -0.4124    0.0000 C   0  0  0  0  0  0  0  0  0  0  0  0
    2.4209   -0.8249    0.0000 C   0  0  0  0  0  0  0  0  0  0  0  0
    3.1354   -0.4124    0.0000 C   0  0  0  0  0  0  0  0  0  0  0  0
    3.8498   -0.8249    0.0000 C   0  0  0  0  0  0  0  0  0  0  0  0
    2.4209    1.6499    0.0000 O   0  0  0  0  0  0  0  0  0  0  0  0
   -0.4369   -1.6499    0.0000 O   0  0  0  0  0  0  0  0  0  0  0  0
    0.9920   -1.6497    0.0000 C   0  0  0  0  0  0  0  0  0  0  0  0
  1  2  1  0
  2  3  1  0
  3  4  1  0
  4  5  1  0
  1  5  1  0
  3  6  2  0
  5  7  1  6
  2  8  1  6
  8  9  1  0
  9 10  1  0
 10 11  1  0
 11 12  1  0
 12 13  2  0
 13 14  1  0
 14 15  1  0
  1 16  1  1
 16 17  2  0
 17 18  1  0
 18 19  1  0
 19 20  1  0
 20 21  1  0
 21 22  1  0
 22 23  1  0
 23 24  1  0
 14 25  2  0
 18 26  1  6
 20 27  1  6
M  END
$$$$
