
     RDKit          2D

 10  9  0  0  0  0  0  0  0  0999 V2000
   -1.4290    0.0000    0.0000 C   0  0  0  0  0  0  0  0  0  0  0  0
   -0.7145    0.4125    0.0000 C   0  0  0  0  0  0  0  0  0  0  0  0
    0.7145    0.4125    0.0000 C   0  0  0  0  0  0  0  0  0  0  0  0
    0.0000    0.0000    0.0000 C   0  0  0  0  0  0  0  0  0  0  0  0
    0.7145    1.2375    0.0000 O   0  0  0  0  0  0  0  0  0  0  0  0
    0.0000   -0.8250    0.0000 S   0  0  0  0  0  0  0  0  0  0  0  0
    0.7145   -1.2375    0.0000 Au  0  0  0  0  0  1  0  0  0  0  0  0
   -1.4290   -0.8251    0.0000 O   0  0  0  0  0  0  0  0  0  0  0  0
    1.4290    0.0000    0.0000 O   0  0  0  0  0  0  0  0  0  0  0  0
   -2.1436    0.4124    0.0000 O   0  0  0  0  0  0  0  0  0  0  0  0
  8  1  2  0
  1  2  1  0
  5  3  2  0
  2  4  1  0
  4  3  1  0
  6  4  1  0
  9  3  1  0
 10  1  1  0
  6  7  1  0
M  CHG  1   9  -1
M  END
$$$$
