
     RDKit          2D

 23 25  0  0  0  0  0  0  0  0999 V2000
    4.2584    1.1193    0.0000 C   0  0  0  0  0  0  0  0  0  0  0  0
    4.9728    1.5318    0.0000 N   0  0  0  0  0  0  0  0  0  0  0  0
    4.9728    2.3568    0.0000 C   0  0  0  0  0  0  0  0  0  0  0  0
    5.6873    1.1193    0.0000 C   0  0  0  0  0  0  0  0  0  0  0  0
    6.4018    1.5318    0.0000 C   0  0  0  0  0  0  0  0  0  0  0  0
    7.1162    1.1193    0.0000 C   0  0  0  0  0  0  0  0  0  0  0  0
    7.8307    1.5318    0.0000 O   0  0  0  0  0  0  0  0  0  0  0  0
    8.5452    1.1193    0.0000 C   0  0  0  0  0  0  0  0  0  0  0  0
    9.2989    1.4548    0.0000 N   0  0  0  0  0  0  0  0  0  0  0  0
    9.8509    0.8418    0.0000 N   0  0  0  0  0  0  0  0  0  0  0  0
   10.6714    0.9280    0.0000 C   0  0  0  0  0  0  0  0  0  0  0  0
   11.1563    0.2606    0.0000 C   0  0  0  0  0  0  0  0  0  0  0  0
   11.9768    0.3468    0.0000 C   0  0  0  0  0  0  0  0  0  0  0  0
   12.4617   -0.3207    0.0000 C   0  0  0  0  0  0  0  0  0  0  0  0
   12.1261   -1.0743    0.0000 C   0  0  0  0  0  0  0  0  0  0  0  0
   11.3057   -1.1606    0.0000 C   0  0  0  0  0  0  0  0  0  0  0  0
   10.8207   -0.4931    0.0000 C   0  0  0  0  0  0  0  0  0  0  0  0
    9.4384    0.1273    0.0000 C   0  0  0  0  0  0  0  0  0  0  0  0
    9.6933   -0.6573    0.0000 C   0  0  0  0  0  0  0  0  0  0  0  0
    9.1413   -1.2704    0.0000 C   0  0  0  0  0  0  0  0  0  0  0  0
    8.3343   -1.0989    0.0000 C   0  0  0  0  0  0  0  0  0  0  0  0
    8.0794   -0.3143    0.0000 C   0  0  0  0  0  0  0  0  0  0  0  0
    8.6314    0.2988    0.0000 C   0  0  0  0  0  0  0  0  0  0  0  0
  1  2  1  0
  2  3  1  0
  2  4  1  0
  4  5  1  0
  5  6  1  0
  6  7  1  0
  7  8  1  0
  8  9  2  0
  9 10  1  0
 10 11  1  0
 11 12  1  0
 12 13  2  0
 13 14  1  0
 14 15  2  0
 15 16  1  0
 16 17  2  0
 12 17  1  0
 10 18  1  0
 18 19  2  0
 19 20  1  0
 20 21  2  0
 21 22  1  0
 22 23  2  0
  8 23  1  0
 18 23  1  0
M  END
$$$$
