
     RDKit          2D

 24 23  0  0  0  0  0  0  0  0999 V2000
    1.4031   -2.8206    0.0000 C   0  0  0  0  0  0  0  0  0  0  0  0
    0.0000    1.2300    0.0000 C   0  0  0  0  0  0  0  0  0  0  0  0
    7.1718    4.4706    0.0000 C   0  0  0  0  0  0  0  0  0  0  0  0
    8.5750    0.4199    0.0000 C   0  0  0  0  0  0  0  0  0  0  0  0
    1.5591   -2.0104    0.0000 C   0  0  0  0  0  0  0  0  0  0  0  0
    0.6236    0.6899    0.0000 C   0  0  0  0  0  0  0  0  0  0  0  0
    7.0159    3.6604    0.0000 C   0  0  0  0  0  0  0  0  0  0  0  0
    7.9514    0.9600    0.0000 C   0  0  0  0  0  0  0  0  0  0  0  0
    2.4945   -0.9302    0.0000 C   0  0  0  0  0  0  0  0  0  0  0  0
    2.0268    0.4199    0.0000 C   0  0  0  0  0  0  0  0  0  0  0  0
    6.0805    2.5802    0.0000 C   0  0  0  0  0  0  0  0  0  0  0  0
    6.5482    1.2300    0.0000 C   0  0  0  0  0  0  0  0  0  0  0  0
    3.2741   -0.6602    0.0000 C   0  0  0  0  0  0  0  0  0  0  0  0
    2.8063    0.6899    0.0000 C   0  0  0  0  0  0  0  0  0  0  0  0
    5.3009    2.3102    0.0000 C   0  0  0  0  0  0  0  0  0  0  0  0
    5.7686    0.9600    0.0000 C   0  0  0  0  0  0  0  0  0  0  0  0
    4.2095    0.4199    0.0000 C   0  0  0  0  0  0  0  0  0  0  0  0
    4.3654    1.2300    0.0000 C   0  0  0  0  0  0  0  0  0  0  0  0
    2.3386   -1.7404    0.0000 O   0  0  0  0  0  0  0  0  0  0  0  0
    1.4031    0.9600    0.0000 O   0  0  0  0  0  0  0  0  0  0  0  0
    6.2364    3.3904    0.0000 O   0  0  0  0  0  0  0  0  0  0  0  0
    7.1718    0.6899    0.0000 O   0  0  0  0  0  0  0  0  0  0  0  0
    3.4300    0.1498    0.0000 P   0  0  0  0  0  0  0  0  0  0  0  0
    5.1450    1.5001    0.0000 P   0  0  0  0  0  0  0  0  0  0  0  0
  5  1  1  0
  6  2  1  0
  7  3  1  0
  8  4  1  0
 13  9  1  0
 14 10  1  0
 15 11  1  0
 16 12  1  0
 18 17  1  0
 19  5  1  0
 19  9  1  0
 20  6  1  0
 20 10  1  0
 21  7  1  0
 21 11  1  0
 22  8  1  0
 22 12  1  0
 23 13  1  0
 23 14  1  0
 23 17  1  0
 24 15  1  0
 24 16  1  0
 24 18  1  0
M  END
$$$$
