PC(16:0/16:0)
     RDKit          2D

 50 49  0  0  1  0  0  0  0  0999 V2000
   17.2908  -10.1901    0.0000 C   0  0  0  0  0  0  0  0  0  0  0  0
   16.5855  -10.5973    0.0000 C   0  0  0  0  0  0  0  0  0  0  0  0
   15.8804  -10.1901    0.0000 C   0  0  0  0  0  0  0  0  0  0  0  0
   17.9959  -10.5973    0.0000 O   0  0  0  0  0  0  0  0  0  0  0  0
   15.1752  -10.5973    0.0000 O   0  0  0  0  0  0  0  0  0  0  0  0
   16.5855  -11.4116    0.0000 O   0  0  0  0  0  0  0  0  0  0  0  0
   18.7012  -10.1901    0.0000 P   0  0  0  0  0  0  0  0  0  0  0  0
   19.1084  -10.8954    0.0000 O   0  0  0  0  0  0  0  0  0  0  0  0
   18.2941   -9.4849    0.0000 O   0  0  0  0  0  0  0  0  0  0  0  0
   19.4063   -9.7829    0.0000 O   0  0  0  0  0  0  0  0  0  0  0  0
   20.1115  -10.1901    0.0000 C   0  0  0  0  0  0  0  0  0  0  0  0
   20.8167   -9.7829    0.0000 C   0  0  0  0  0  0  0  0  0  0  0  0
   21.5219  -10.1901    0.0000 N   0  0  0  0  0  0  0  0  0  0  0  0
   21.1147  -10.8954    0.0000 C   0  0  0  0  0  0  0  0  0  0  0  0
   22.1746   -9.3375    0.0000 C   0  0  0  0  0  0  0  0  0  0  0  0
   22.2272  -10.5973    0.0000 C   0  0  0  0  0  0  0  0  0  0  0  0
   14.4607  -10.1849    0.0000 C   0  0  0  0  0  0  0  0  0  0  0  0
   14.4607   -9.4134    0.0000 O   0  0  0  0  0  0  0  0  0  0  0  0
   13.7465  -10.5980    0.0000 C   0  0  0  0  0  0  0  0  0  0  0  0
   13.0324  -10.1849    0.0000 C   0  0  0  0  0  0  0  0  0  0  0  0
   12.3182  -10.5980    0.0000 C   0  0  0  0  0  0  0  0  0  0  0  0
   11.6041  -10.1849    0.0000 C   0  0  0  0  0  0  0  0  0  0  0  0
   10.8899  -10.5980    0.0000 C   0  0  0  0  0  0  0  0  0  0  0  0
   10.1758  -10.1849    0.0000 C   0  0  0  0  0  0  0  0  0  0  0  0
    9.4617  -10.5980    0.0000 C   0  0  0  0  0  0  0  0  0  0  0  0
    8.7476  -10.1849    0.0000 C   0  0  0  0  0  0  0  0  0  0  0  0
    8.0334  -10.5980    0.0000 C   0  0  0  0  0  0  0  0  0  0  0  0
    7.3193  -10.1849    0.0000 C   0  0  0  0  0  0  0  0  0  0  0  0
    6.6051  -10.5980    0.0000 C   0  0  0  0  0  0  0  0  0  0  0  0
    5.8910  -10.1849    0.0000 C   0  0  0  0  0  0  0  0  0  0  0  0
    5.1768  -10.5980    0.0000 C   0  0  0  0  0  0  0  0  0  0  0  0
    4.4627  -10.1849    0.0000 C   0  0  0  0  0  0  0  0  0  0  0  0
    3.7486  -10.5980    0.0000 C   0  0  0  0  0  0  0  0  0  0  0  0
   15.8711  -11.8240    0.0000 C   0  0  0  0  0  0  0  0  0  0  0  0
   15.8711  -12.5954    0.0000 O   0  0  0  0  0  0  0  0  0  0  0  0
   15.1570  -11.4109    0.0000 C   0  0  0  0  0  0  0  0  0  0  0  0
   14.4428  -11.8240    0.0000 C   0  0  0  0  0  0  0  0  0  0  0  0
   13.7287  -11.4109    0.0000 C   0  0  0  0  0  0  0  0  0  0  0  0
   13.0145  -11.8240    0.0000 C   0  0  0  0  0  0  0  0  0  0  0  0
   12.3004  -11.4109    0.0000 C   0  0  0  0  0  0  0  0  0  0  0  0
   11.5863  -11.8240    0.0000 C   0  0  0  0  0  0  0  0  0  0  0  0
   10.8721  -11.4109    0.0000 C   0  0  0  0  0  0  0  0  0  0  0  0
   10.1580  -11.8240    0.0000 C   0  0  0  0  0  0  0  0  0  0  0  0
    9.4439  -11.4109    0.0000 C   0  0  0  0  0  0  0  0  0  0  0  0
    8.7297  -11.8240    0.0000 C   0  0  0  0  0  0  0  0  0  0  0  0
    8.0156  -11.4109    0.0000 C   0  0  0  0  0  0  0  0  0  0  0  0
    7.3014  -11.8240    0.0000 C   0  0  0  0  0  0  0  0  0  0  0  0
    6.5873  -11.4109    0.0000 C   0  0  0  0  0  0  0  0  0  0  0  0
    5.8731  -11.8240    0.0000 C   0  0  0  0  0  0  0  0  0  0  0  0
    5.1590  -11.4109    0.0000 C   0  0  0  0  0  0  0  0  0  0  0  0
  1  4  1  0
  2  1  1  6
  2  6  1  0
  3  2  1  0
  3  5  1  0
  4  7  1  0
  5 17  1  0
  6 34  1  0
  7  8  1  0
  7  9  2  0
  7 10  1  0
 10 11  1  0
 11 12  1  0
 12 13  1  0
 13 14  1  0
 13 15  1  0
 13 16  1  0
 17 18  2  0
 17 19  1  0
 19 20  1  0
 20 21  1  0
 21 22  1  0
 22 23  1  0
 23 24  1  0
 24 25  1  0
 25 26  1  0
 26 27  1  0
 27 28  1  0
 28 29  1  0
 29 30  1  0
 30 31  1  0
 31 32  1  0
 32 33  1  0
 34 35  2  0
 34 36  1  0
 36 37  1  0
 37 38  1  0
 38 39  1  0
 39 40  1  0
 40 41  1  0
 41 42  1  0
 42 43  1  0
 43 44  1  0
 44 45  1  0
 45 46  1  0
 46 47  1  0
 47 48  1  0
 48 49  1  0
 49 50  1  0
M  CHG  2   8  -1  13   1
M  END
$$$$
