
     RDKit          2D

 65 70  0  0  0  0  0  0  0  0999 V2000
   -0.7218    1.3199    0.0000 C   0  0  0  0  0  0  0  0  0  0  0  0
   -0.7218    0.4949    0.0000 C   0  0  0  0  0  0  0  0  0  0  0  0
   -0.0206    0.0824    0.0000 C   0  0  0  0  0  0  0  0  0  0  0  0
    0.7219    0.4949    0.0000 C   0  0  0  0  0  0  0  0  0  0  0  0
    0.7219    1.3199    0.0000 C   0  0  0  0  0  0  0  0  0  0  0  0
   -0.0206    1.7324    0.0000 C   0  0  0  0  0  0  0  0  0  0  0  0
   -0.0206   -0.7425    0.0000 N   0  0  0  0  0  0  0  0  0  0  0  0
   -0.0206    2.5575    0.0000 C   0  0  0  0  0  0  0  0  0  0  0  0
   -0.0206    3.3826    0.0000 C   0  0  0  0  0  0  0  0  0  0  0  0
   -0.6806   -1.2376    0.0000 C   0  0  0  0  0  0  0  0  0  0  0  0
   -0.4331   -2.0214    0.0000 C   0  0  0  0  0  0  0  0  0  0  0  0
    0.3918   -2.0214    0.0000 C   0  0  0  0  0  0  0  0  0  0  0  0
    0.6806   -1.2376    0.0000 C   0  0  0  0  0  0  0  0  0  0  0  0
    1.3819    0.0000    0.0000 C   0  0  0  0  0  0  0  0  0  0  0  0
    1.3819   -0.8250    0.0000 C   0  0  0  0  0  0  0  0  0  0  0  0
    2.0831   -1.2376    0.0000 C   0  0  0  0  0  0  0  0  0  0  0  0
    2.8257   -0.8250    0.0000 C   0  0  0  0  0  0  0  0  0  0  0  0
    2.8257    0.0000    0.0000 C   0  0  0  0  0  0  0  0  0  0  0  0
    2.0831    0.4124    0.0000 C   0  0  0  0  0  0  0  0  0  0  0  0
   -2.8257    0.0000    0.0000 C   0  0  0  0  0  0  0  0  0  0  0  0
   -2.8257   -0.8250    0.0000 C   0  0  0  0  0  0  0  0  0  0  0  0
   -2.1244   -1.2376    0.0000 C   0  0  0  0  0  0  0  0  0  0  0  0
   -1.3819   -0.8250    0.0000 C   0  0  0  0  0  0  0  0  0  0  0  0
   -1.3819    0.0000    0.0000 C   0  0  0  0  0  0  0  0  0  0  0  0
   -2.1244    0.4124    0.0000 C   0  0  0  0  0  0  0  0  0  0  0  0
   -3.5269    0.4124    0.0000 N   0  0  0  0  0  0  0  0  0  0  0  0
   -4.2282    0.0000    0.0000 C   0  0  0  0  0  0  0  0  0  0  0  0
   -4.9295    0.4124    0.0000 C   0  0  0  0  0  0  0  0  0  0  0  0
   -4.2282   -0.8250    0.0000 O   0  0  0  0  0  0  0  0  0  0  0  0
   -5.6307   -0.0826    0.0000 N   0  0  0  0  0  0  0  0  0  0  0  0
   -6.2908    0.4124    0.0000 C   0  0  0  0  0  0  0  0  0  0  0  0
   -6.0433    1.1962    0.0000 C   0  0  0  0  0  0  0  0  0  0  0  0
   -5.2183    1.1962    0.0000 C   0  0  0  0  0  0  0  0  0  0  0  0
   -5.6307   -0.9076    0.0000 C   0  0  0  0  0  0  0  0  0  0  0  0
   -6.3733   -1.3201    0.0000 C   0  0  0  0  0  0  0  0  0  0  0  0
   -4.9295   -1.3201    0.0000 O   0  0  0  0  0  0  0  0  0  0  0  0
   -7.0745   -0.8663    0.0000 C   0  0  0  0  0  0  0  0  0  0  0  0
   -7.7758   -1.2788    0.0000 C   0  0  0  0  0  0  0  0  0  0  0  0
   -7.0745   -0.0413    0.0000 C   0  0  0  0  0  0  0  0  0  0  0  0
   -6.3733   -2.1451    0.0000 N   0  0  0  0  0  0  0  0  0  0  0  0
   -7.0745   -2.5576    0.0000 C   0  0  0  0  0  0  0  0  0  0  0  0
   -7.7758   -2.1451    0.0000 O   0  0  0  0  0  0  0  0  0  0  0  0
   -8.5183   -2.5576    0.0000 C   0  0  0  0  0  0  0  0  0  0  0  0
   -7.0745   -3.3826    0.0000 O   0  0  0  0  0  0  0  0  0  0  0  0
    3.5269    0.4124    0.0000 N   0  0  0  0  0  0  0  0  0  0  0  0
    4.2282    0.0000    0.0000 C   0  0  0  0  0  0  0  0  0  0  0  0
    4.9295    0.4124    0.0000 C   0  0  0  0  0  0  0  0  0  0  0  0
    4.2282   -0.8250    0.0000 O   0  0  0  0  0  0  0  0  0  0  0  0
    5.6307   -0.0826    0.0000 N   0  0  0  0  0  0  0  0  0  0  0  0
    6.2908    0.4124    0.0000 C   0  0  0  0  0  0  0  0  0  0  0  0
    6.0433    1.1962    0.0000 C   0  0  0  0  0  0  0  0  0  0  0  0
    5.2183    1.1962    0.0000 C   0  0  0  0  0  0  0  0  0  0  0  0
    5.6307   -0.9076    0.0000 C   0  0  0  0  0  0  0  0  0  0  0  0
    6.3733   -1.3201    0.0000 C   0  0  0  0  0  0  0  0  0  0  0  0
    4.9295   -1.3201    0.0000 O   0  0  0  0  0  0  0  0  0  0  0  0
    7.0745   -0.8663    0.0000 C   0  0  0  0  0  0  0  0  0  0  0  0
    7.7758   -1.2788    0.0000 C   0  0  0  0  0  0  0  0  0  0  0  0
    7.0745   -0.0413    0.0000 C   0  0  0  0  0  0  0  0  0  0  0  0
    6.3733   -2.1451    0.0000 N   0  0  0  0  0  0  0  0  0  0  0  0
    7.0745   -2.5576    0.0000 C   0  0  0  0  0  0  0  0  0  0  0  0
    7.7758   -2.1451    0.0000 O   0  0  0  0  0  0  0  0  0  0  0  0
    8.5183   -2.5576    0.0000 C   0  0  0  0  0  0  0  0  0  0  0  0
    7.0745   -3.3826    0.0000 O   0  0  0  0  0  0  0  0  0  0  0  0
    0.6938    2.9700    0.0000 C   0  0  0  0  0  0  0  0  0  0  0  0
   -0.7351    2.9700    0.0000 C   0  0  0  0  0  0  0  0  0  0  0  0
  1  2  2  0
  2  3  1  0
  3  4  2  0
  4  5  1  0
  5  6  2  0
  1  6  1  0
  3  7  1  0
  6  8  1  0
  8  9  1  0
  7 10  1  0
 10 11  1  0
 11 12  1  0
 12 13  1  0
  7 13  1  0
 14 15  2  0
 15 16  1  0
 16 17  2  0
 17 18  1  0
 18 19  2  0
 14 19  1  0
 13 15  1  6
 20 21  2  0
 21 22  1  0
 22 23  2  0
 23 24  1  0
 24 25  2  0
 20 25  1  0
 10 23  1  1
 20 26  1  0
 26 27  1  0
 28 27  1  1
 27 29  2  0
 30 31  1  0
 31 32  1  0
 32 33  1  0
 33 28  1  0
 30 28  1  0
 30 34  1  0
 34 35  1  0
 34 36  2  0
 35 37  1  0
 37 38  1  0
 37 39  1  0
 35 40  1  1
 40 41  1  0
 41 42  1  0
 42 43  1  0
 41 44  2  0
 45 46  1  0
 47 46  1  6
 46 48  2  0
 49 50  1  0
 50 51  1  0
 51 52  1  0
 52 47  1  0
 49 47  1  0
 49 53  1  0
 53 54  1  0
 53 55  2  0
 54 56  1  0
 56 57  1  0
 56 58  1  0
 54 59  1  6
 59 60  1  0
 60 61  1  0
 61 62  1  0
 60 63  2  0
 45 18  1  0
  8 64  1  0
  8 65  1  0
M  END
$$$$
