
     RDKit          2D

 17 18  0  0  0  0  0  0  0  0999 V2000
    1.9109   -0.2767    0.0000 N   0  0  0  0  0  0  0  0  0  0  0  0
    1.4944   -0.9890    0.0000 C   0  0  0  0  0  0  0  0  0  0  0  0
    1.9029   -1.7058    0.0000 C   0  0  0  0  0  0  0  0  0  0  0  0
    2.7282   -1.7104    0.0000 O   0  0  0  0  0  0  0  0  0  0  0  0
    3.1446   -0.9981    0.0000 C   0  0  0  0  0  0  0  0  0  0  0  0
    2.7361   -0.2812    0.0000 C   0  0  0  0  0  0  0  0  0  0  0  0
    1.5024    0.4398    0.0000 N   0  0  0  0  0  0  0  0  0  0  0  0
    1.7592    1.2238    0.0000 N   0  0  0  0  0  0  0  0  0  0  0  0
    1.0900    1.7104    0.0000 O   0  0  0  0  0  0  0  0  0  0  0  0
    0.4210    1.2238    0.0000 C   0  0  0  0  0  0  0  0  0  0  0  0
    0.6776    0.4398    0.0000 C   0  0  0  0  0  0  0  0  0  0  0  0
   -0.2928    1.6395    0.0000 N   0  0  0  0  0  0  0  0  0  0  0  0
   -1.0052    1.2272    0.0000 C   0  0  0  0  0  0  0  0  0  0  0  0
   -1.7175    1.6395    0.0000 O   0  0  0  0  0  0  0  0  0  0  0  0
   -2.4299    1.2272    0.0000 C   0  0  0  0  0  0  0  0  0  0  0  0
   -1.0052    0.4023    0.0000 O   0  0  0  0  0  0  0  0  0  0  0  0
   -3.1446    1.6388    0.0000 C   0  0  0  0  0  0  0  0  0  0  0  0
  3  4  1  0
  4  5  1  0
  7  8  2  0
  8  9  1  0
  9 10  1  0
 10 11  2  0
 11  7  1  0
  5  6  1  0
 10 12  1  0
  6  1  1  0
 12 13  1  0
 13 14  1  0
  1  7  1  0
 14 15  1  0
  1  2  1  0
 13 16  2  0
  2  3  1  0
 15 17  1  0
M  CHG  2   7   1  12  -1
M  END
$$$$
