
     RDKit          2D

 37 40  0  0  0  0  0  0  0  0999 V2000
    0.0201    1.2277    0.0000 O   0  0  0  0  0  0  0  0  0  0  0  0
   -4.3168    1.2277    0.0000 O   0  0  0  0  0  0  0  0  0  0  0  0
   -0.7345    0.0201    0.0000 O   0  0  0  0  0  0  0  0  0  0  0  0
   -3.5721    0.0201    0.0000 O   0  0  0  0  0  0  0  0  0  0  0  0
   -0.7345   -2.4854    0.0000 O   0  0  0  0  0  0  0  0  0  0  0  0
    0.1911   -1.0263    0.0000 O   0  0  0  0  0  0  0  0  0  0  0  0
   -2.1534    2.4854    0.0000 N   0  0  0  0  0  0  0  0  0  0  0  0
   -0.7345   -1.6502    0.0000 N   0  0  0  0  0  0  0  0  0  0  0  0
    2.1534    0.8151    0.0000 N   0  0  0  0  0  0  0  0  0  0  0  0
   -2.1534    0.8151    0.0000 C   0  0  0  0  0  0  0  0  0  0  0  0
   -1.4389    1.2277    0.0000 C   0  0  0  0  0  0  0  0  0  0  0  0
   -2.8577    1.2277    0.0000 C   0  0  0  0  0  0  0  0  0  0  0  0
   -2.1534    0.0201    0.0000 C   0  0  0  0  0  0  0  0  0  0  0  0
   -1.4389    2.0628    0.0000 C   0  0  0  0  0  0  0  0  0  0  0  0
   -2.8577    2.0628    0.0000 C   0  0  0  0  0  0  0  0  0  0  0  0
   -0.7345    0.8151    0.0000 C   0  0  0  0  0  0  0  0  0  0  0  0
   -3.5721    0.8151    0.0000 C   0  0  0  0  0  0  0  0  0  0  0  0
   -1.4389   -0.4024    0.0000 C   0  0  0  0  0  0  0  0  0  0  0  0
   -2.8577   -0.4024    0.0000 C   0  0  0  0  0  0  0  0  0  0  0  0
   -1.4389   -1.2377    0.0000 C   0  0  0  0  0  0  0  0  0  0  0  0
   -0.7345    2.4854    0.0000 C   0  0  0  0  0  0  0  0  0  0  0  0
    0.7345    0.8151    0.0000 C   0  0  0  0  0  0  0  0  0  0  0  0
   -3.5721    2.4854    0.0000 C   0  0  0  0  0  0  0  0  0  0  0  0
   -2.8577   -1.2377    0.0000 C   0  0  0  0  0  0  0  0  0  0  0  0
   -2.1534   -1.6502    0.0000 C   0  0  0  0  0  0  0  0  0  0  0  0
    1.4389    1.2277    0.0000 C   0  0  0  0  0  0  0  0  0  0  0  0
    0.7345    0.0201    0.0000 C   0  0  0  0  0  0  0  0  0  0  0  0
    1.4389   -0.4024    0.0000 C   0  0  0  0  0  0  0  0  0  0  0  0
    2.1534    0.0201    0.0000 C   0  0  0  0  0  0  0  0  0  0  0  0
   -5.0313    0.8151    0.0000 C   0  0  0  0  0  0  0  0  0  0  0  0
    2.8577    1.2277    0.0000 C   0  0  0  0  0  0  0  0  0  0  0  0
    3.6124    0.8151    0.0000 C   0  0  0  0  0  0  0  0  0  0  0  0
    3.6124    0.0201    0.0000 C   0  0  0  0  0  0  0  0  0  0  0  0
    4.3168    1.2277    0.0000 C   0  0  0  0  0  0  0  0  0  0  0  0
    4.3168   -0.4024    0.0000 C   0  0  0  0  0  0  0  0  0  0  0  0
    5.0313    0.8151    0.0000 C   0  0  0  0  0  0  0  0  0  0  0  0
    5.0313    0.0201    0.0000 C   0  0  0  0  0  0  0  0  0  0  0  0
  1 16  1  0
 22  1  1  1
  2 17  1  0
  2 30  1  0
  3 16  2  0
  4 17  2  0
  5  8  1  0
  6  8  2  0
  7 14  1  0
  7 15  1  0
  8 20  1  0
  9 26  1  0
  9 29  1  0
  9 31  1  0
 10 11  1  0
 10 12  1  0
 10 13  1  6
 11 14  2  0
 11 16  1  0
 12 15  2  0
 12 17  1  0
 13 18  2  0
 13 19  1  0
 14 21  1  0
 15 23  1  0
 18 20  1  0
 19 24  2  0
 20 25  2  0
 22 26  1  0
 22 27  1  0
 24 25  1  0
 27 28  1  0
 28 29  1  0
 31 32  1  0
 32 33  2  0
 32 34  1  0
 33 35  1  0
 34 36  2  0
 35 37  2  0
 36 37  1  0
M  CHG  2   5  -1   8   1
M  END
$$$$
