
     RDKit          2D

 19 19  0  0  0  0  0  0  0  0999 V2000
    3.1406   -1.0164    0.0000 C   0  0  0  0  0  0  0  0  0  0  0  0
    7.6150    0.7685    0.0000 C   0  0  0  0  0  0  0  0  0  0  0  0
    5.9984   -1.8414    0.0000 C   0  0  0  0  0  0  0  0  0  0  0  0
   10.4648   -1.4493    0.0000 C   0  0  0  0  0  0  0  0  0  0  0  0
    3.8550   -0.6039    0.0000 C   0  0  0  0  0  0  0  0  0  0  0  0
    4.5695   -1.0164    0.0000 C   0  0  0  0  0  0  0  0  0  0  0  0
    9.0351    0.3880    0.0000 C   0  0  0  0  0  0  0  0  0  0  0  0
    8.2281    0.2165    0.0000 C   0  0  0  0  0  0  0  0  0  0  0  0
    5.9984   -1.0164    0.0000 C   0  0  0  0  0  0  0  0  0  0  0  0
    8.1418   -0.6039    0.0000 C   0  0  0  0  0  0  0  0  0  0  0  0
    8.8955   -0.9394    0.0000 C   0  0  0  0  0  0  0  0  0  0  0  0
    6.7129   -0.6039    0.0000 C   0  0  0  0  0  0  0  0  0  0  0  0
    9.0671   -1.7464    0.0000 C   0  0  0  0  0  0  0  0  0  0  0  0
    5.2840   -0.6039    0.0000 N   0  0  0  0  0  0  0  0  0  0  0  0
    7.4274   -1.0164    0.0000 N   0  0  0  0  0  0  0  0  0  0  0  0
    6.7129    0.2210    0.0000 O   0  0  0  0  0  0  0  0  0  0  0  0
    8.4540   -2.2985    0.0000 O   0  0  0  0  0  0  0  0  0  0  0  0
    9.8517   -2.0014    0.0000 O   0  0  0  0  0  0  0  0  0  0  0  0
    9.4476   -0.3264    0.0000 S   0  0  0  0  0  0  0  0  0  0  0  0
  5  1  1  0
  6  5  1  0
  8  2  1  0
  8  7  2  0
  9  3  1  0
 10  8  1  0
 11 10  2  0
 12  9  1  0
 13 11  1  0
 14  6  1  0
 14  9  1  0
 15 10  1  0
 15 12  2  3
 16 12  1  0
 17 13  2  0
 18  4  1  0
 18 13  1  0
 19  7  1  0
 19 11  1  0
M  END
$$$$
