
     RDKit          2D

 38 42  0  0  0  0  0  0  0  0999 V2000
    1.7268   -3.5738    0.0000 C   0  0  0  0  0  0  0  0  0  0  0  0
    1.8837   -1.8806    0.0000 C   0  0  0  0  0  0  0  0  0  0  0  0
   -1.6375    1.5571    0.0000 C   0  0  0  0  0  0  0  0  0  0  0  0
   -1.6297    3.2220    0.0000 C   0  0  0  0  0  0  0  0  0  0  0  0
    0.8429   -0.5602    0.0000 C   0  0  0  0  0  0  0  0  0  0  0  0
   -0.5780   -0.4104    0.0000 C   0  0  0  0  0  0  0  0  0  0  0  0
    0.9293    0.2602    0.0000 C   0  0  0  0  0  0  0  0  0  0  0  0
   -0.4915    0.4099    0.0000 C   0  0  0  0  0  0  0  0  0  0  0  0
    2.0911   -2.3507    0.0000 C   0  0  0  0  0  0  0  0  0  0  0  0
   -1.8811    1.9827    0.0000 C   0  0  0  0  0  0  0  0  0  0  0  0
    2.0046   -3.1711    0.0000 C   0  0  0  0  0  0  0  0  0  0  0  0
   -1.8811    2.8076    0.0000 C   0  0  0  0  0  0  0  0  0  0  0  0
   -0.0494   -1.7334    0.0000 C   0  0  0  0  0  0  0  0  0  0  0  0
    0.3205    1.5934    0.0000 C   0  0  0  0  0  0  0  0  0  0  0  0
    1.1078   -4.3802    0.0000 C   0  0  0  0  0  0  0  0  0  0  0  0
   -1.0364    4.1213    0.0000 C   0  0  0  0  0  0  0  0  0  0  0  0
    0.0892   -0.8954    0.0000 C   0  0  0  0  0  0  0  0  0  0  0  0
    0.2621    0.7453    0.0000 C   0  0  0  0  0  0  0  0  0  0  0  0
    0.6701   -2.2010    0.0000 C   0  0  0  0  0  0  0  0  0  0  0  0
   -0.4522    1.9827    0.0000 C   0  0  0  0  0  0  0  0  0  0  0  0
    1.4238   -1.8656    0.0000 C   0  0  0  0  0  0  0  0  0  0  0  0
   -1.1666    1.5702    0.0000 C   0  0  0  0  0  0  0  0  0  0  0  0
    0.5836   -3.0213    0.0000 C   0  0  0  0  0  0  0  0  0  0  0  0
   -0.4522    2.8076    0.0000 C   0  0  0  0  0  0  0  0  0  0  0  0
    1.1322   -2.6644    0.0000 C   0  0  0  0  0  0  0  0  0  0  0  0
   -0.9604    2.3952    0.0000 C   0  0  0  0  0  0  0  0  0  0  0  0
    1.2509   -3.5064    0.0000 C   0  0  0  0  0  0  0  0  0  0  0  0
   -1.1666    3.2201    0.0000 C   0  0  0  0  0  0  0  0  0  0  0  0
   -0.1958   -3.3739    0.0000 O   0  0  0  0  0  0  0  0  0  0  0  0
    0.3459    3.1527    0.0000 O   0  0  0  0  0  0  0  0  0  0  0  0
    2.0560   -5.7930    0.0000 O   0  0  0  0  0  0  0  0  0  0  0  0
    2.2813   -4.6484    0.0000 O   0  0  0  0  0  0  0  0  0  0  0  0
    0.9112   -5.5678    0.0000 O   0  0  0  0  0  0  0  0  0  0  0  0
   -1.7482    5.7930    0.0000 O   0  0  0  0  0  0  0  0  0  0  0  0
   -0.6689    5.4393    0.0000 O   0  0  0  0  0  0  0  0  0  0  0  0
   -2.2813    4.8993    0.0000 O   0  0  0  0  0  0  0  0  0  0  0  0
    1.5963   -5.1081    0.0000 S   0  0  0  0  0  0  0  0  0  0  0  0
   -1.4120    4.9688    0.0000 S   0  0  0  0  0  0  0  0  0  0  0  0
  7  5  2  0
  8  6  1  0
 11  9  1  0
 12 10  1  0
 17  5  1  0
 17  6  2  0
 13 17  1  0
 18  7  1  0
 18  8  2  0
 14 18  1  0
 19 13  2  3
 20 14  2  3
 21  9  1  0
 21 19  1  0
 22 10  1  0
 22 20  1  0
 23 19  1  0
 24 20  1  0
 25  1  1  0
 25  2  1  0
 25 21  1  0
 26  3  1  0
 26  4  1  0
 26 22  1  0
 27 11  1  0
 27 15  1  0
 27 23  1  0
 27 25  1  0
 28 12  1  0
 28 16  1  0
 28 24  1  0
 28 26  1  0
 29 23  2  0
 30 24  2  0
 37 15  1  0
 37 31  1  0
 37 32  2  0
 37 33  2  0
 38 16  1  0
 38 34  1  0
 38 35  2  0
 38 36  2  0
M  END
$$$$
