
     RDKit          2D

 23 23  0  0  1  0  0  0  0  0999 V2000
    4.2868   -2.4750    0.0000 C   0  0  0  0  0  0  0  0  0  0  0  0
    5.7157   -2.4750    0.0000 C   0  0  0  0  0  0  0  0  0  0  0  0
    3.5723    3.7125    0.0000 C   0  0  0  0  0  0  0  0  0  0  0  0
    3.5723    2.8875    0.0000 C   0  0  0  0  0  0  0  0  0  0  0  0
    5.0012   -1.2375    0.0000 C   0  0  0  0  0  0  0  0  0  0  0  0
    5.0012    3.7125    0.0000 C   0  0  0  0  0  0  0  0  0  0  0  0
    6.4302    1.2375    0.0000 C   0  0  0  0  0  0  0  0  0  0  0  0
    5.0012   -2.0625    0.0000 C   0  0  0  0  0  0  0  0  0  0  0  0
    4.2868    4.1250    0.0000 C   0  0  0  0  0  0  0  0  0  0  0  0
    5.0012    2.8875    0.0000 C   0  0  0  0  0  0  0  0  0  0  0  0
    4.2868    2.4750    0.0000 C   0  0  0  0  0  0  0  0  0  0  0  0
    5.7157   -0.8250    0.0000 C   0  0  0  0  0  0  0  0  0  0  0  0
    6.4302    0.4125    0.0000 C   0  0  0  0  0  0  0  0  0  0  0  0
    5.7157    2.4750    0.0000 C   0  0  0  0  0  0  0  0  0  0  0  0
    6.4302   -1.2375    0.0000 B   0  0  0  0  0  0  0  0  0  0  0  0
    4.2868    4.9500    0.0000 Cl  0  0  0  0  0  0  0  0  0  0  0  0
    4.2868    1.6500    0.0000 Cl  0  0  0  0  0  0  0  0  0  0  0  0
    5.7157    1.6500    0.0000 N   0  0  0  0  0  0  0  0  0  0  0  0
    5.7157    0.0000    0.0000 N   0  0  0  0  0  0  0  0  0  0  0  0
    7.1447    0.0000    0.0000 O   0  0  0  0  0  0  0  0  0  0  0  0
    6.4302    2.8875    0.0000 O   0  0  0  0  0  0  0  0  0  0  0  0
    7.1447   -0.8250    0.0000 O   0  0  0  0  0  0  0  0  0  0  0  0
    6.4302   -2.0625    0.0000 O   0  0  0  0  0  0  0  0  0  0  0  0
  4  3  2  0
  8  1  1  0
  8  2  1  0
  8  5  1  0
  9  3  1  0
  9  6  2  0
 10  6  1  0
 11  4  1  0
 11 10  2  0
 12  5  1  6
 13  7  1  0
 14 10  1  0
 12 15  1  0
 16  9  1  0
 17 11  1  0
 18  7  1  0
 18 14  2  3
 19 12  1  0
 19 13  2  3
 13 20  1  0
 21 14  1  0
 22 15  1  0
 23 15  1  0
M  END
$$$$
