
     RDKit          2D

 36 40  0  0  1  0  0  0  0  0999 V2000
    5.6424   -1.7771    0.0000 C   0  0  0  0  0  0  0  0  0  0  0  0
   -0.3984    2.9750    0.0000 C   0  0  0  0  0  0  0  0  0  0  0  0
    4.9279   -1.3646    0.0000 C   0  0  0  0  0  0  0  0  0  0  0  0
   -0.0734    8.1229    0.0000 C   0  0  0  0  0  0  0  0  0  0  0  0
   -0.0734    7.2979    0.0000 C   0  0  0  0  0  0  0  0  0  0  0  0
    0.6411    8.5354    0.0000 C   0  0  0  0  0  0  0  0  0  0  0  0
   -0.0734    5.6479    0.0000 C   0  0  0  0  0  0  0  0  0  0  0  0
   -0.0734    4.8229    0.0000 C   0  0  0  0  0  0  0  0  0  0  0  0
    0.6411    3.5854    0.0000 C   0  0  0  0  0  0  0  0  0  0  0  0
    3.4990    1.9354    0.0000 C   0  0  0  0  0  0  0  0  0  0  0  0
    2.7845    2.3479    0.0000 C   0  0  0  0  0  0  0  0  0  0  0  0
    1.3556    3.1729    0.0000 C   0  0  0  0  0  0  0  0  0  0  0  0
    1.3556    7.2979    0.0000 C   0  0  0  0  0  0  0  0  0  0  0  0
    2.7845    0.6979    0.0000 C   0  0  0  0  0  0  0  0  0  0  0  0
    1.3556    0.6979    0.0000 C   0  0  0  0  0  0  0  0  0  0  0  0
    1.3556    5.6479    0.0000 C   0  0  0  0  0  0  0  0  0  0  0  0
   -0.1435    2.1904    0.0000 C   0  0  0  0  0  0  0  0  0  0  0  0
    0.6411    6.8854    0.0000 C   0  0  0  0  0  0  0  0  0  0  0  0
    0.6411    6.0604    0.0000 C   0  0  0  0  0  0  0  0  0  0  0  0
    2.0701    1.1104    0.0000 C   0  0  0  0  0  0  0  0  0  0  0  0
    1.3556    8.1229    0.0000 C   0  0  0  0  0  0  0  0  0  0  0  0
    0.6411    4.4104    0.0000 C   0  0  0  0  0  0  0  0  0  0  0  0
    3.4990    1.1104    0.0000 C   0  0  0  0  0  0  0  0  0  0  0  0
    2.0701    1.9354    0.0000 C   0  0  0  0  0  0  0  0  0  0  0  0
    1.3556    2.3479    0.0000 C   0  0  0  0  0  0  0  0  0  0  0  0
    0.6411    1.1104    0.0000 C   0  0  0  0  0  0  0  0  0  0  0  0
    0.6411    1.9354    0.0000 C   0  0  0  0  0  0  0  0  0  0  0  0
   -0.1435    0.8555    0.0000 C   0  0  0  0  0  0  0  0  0  0  0  0
    4.2135   -0.1271    0.0000 C   0  0  0  0  0  0  0  0  0  0  0  0
    2.0701    8.5354    0.0000 F   0  0  0  0  0  0  0  0  0  0  0  0
    1.3556    4.8229    0.0000 N   0  0  0  0  0  0  0  0  0  0  0  0
    4.2135    0.6979    0.0000 N   0  0  0  0  0  0  0  0  0  0  0  0
   -0.3984    0.0709    0.0000 O   0  0  0  0  0  0  0  0  0  0  0  0
    3.4990   -0.5396    0.0000 O   0  0  0  0  0  0  0  0  0  0  0  0
    4.9279   -0.5396    0.0000 O   0  0  0  0  0  0  0  0  0  0  0  0
   -0.6284    1.5229    0.0000 O   0  0  0  0  0  0  0  0  0  0  0  0
  3  1  1  0
  5  4  2  0
  6  4  1  0
  8  7  2  0
 11 10  1  0
 12  9  2  0
 17  2  1  6
 18  5  1  0
 18 13  2  0
 19  7  1  0
 19 16  2  0
 19 18  1  0
 20 14  1  1
 20 15  1  0
 21  6  2  0
 21 13  1  0
 22  8  1  0
 22  9  1  0
 23 10  1  0
 23 14  1  0
 24 11  1  6
 24 20  1  0
 25 12  1  1
 25 24  1  0
 26 15  1  1
 27 17  1  1
 27 25  1  0
 27 26  1  0
 28 26  1  0
 30 21  1  0
 31 16  1  0
 31 22  2  0
 23 32  1  1
 32 29  2  3
 33 28  2  0
 29 34  1  0
 35  3  1  0
 35 29  1  0
 36 17  1  0
 36 28  1  0
M  END
$$$$
