
     RDKit          2D

 40 44  0  0  0  0  0  0  0  0999 V2000
   -4.5916    6.8168    0.0000 C   0  0  0  0  0  0  0  0  0  0  0  0
    0.2502    5.7877    0.0000 C   0  0  0  0  0  0  0  0  0  0  0  0
    5.4223   -1.6500    0.0000 C   0  0  0  0  0  0  0  0  0  0  0  0
    3.1810    3.7038    0.0000 C   0  0  0  0  0  0  0  0  0  0  0  0
    2.3740    3.8754    0.0000 C   0  0  0  0  0  0  0  0  0  0  0  0
    3.4359    2.9192    0.0000 C   0  0  0  0  0  0  0  0  0  0  0  0
    1.8220    3.2623    0.0000 C   0  0  0  0  0  0  0  0  0  0  0  0
    2.8839    2.3061    0.0000 C   0  0  0  0  0  0  0  0  0  0  0  0
    3.9934    0.8250    0.0000 C   0  0  0  0  0  0  0  0  0  0  0  0
    1.0150    3.4338    0.0000 C   0  0  0  0  0  0  0  0  0  0  0  0
   -0.3440    2.9922    0.0000 C   0  0  0  0  0  0  0  0  0  0  0  0
    0.7601    4.2184    0.0000 C   0  0  0  0  0  0  0  0  0  0  0  0
   -0.5989    3.7769    0.0000 C   0  0  0  0  0  0  0  0  0  0  0  0
    3.2789    1.2375    0.0000 C   0  0  0  0  0  0  0  0  0  0  0  0
   -3.5297    5.8607    0.0000 C   0  0  0  0  0  0  0  0  0  0  0  0
   -3.2326    7.2584    0.0000 C   0  0  0  0  0  0  0  0  0  0  0  0
   -2.7227    5.6892    0.0000 C   0  0  0  0  0  0  0  0  0  0  0  0
   -2.4257    7.0869    0.0000 C   0  0  0  0  0  0  0  0  0  0  0  0
    3.2789   -0.4125    0.0000 C   0  0  0  0  0  0  0  0  0  0  0  0
   -1.3637    6.1307    0.0000 C   0  0  0  0  0  0  0  0  0  0  0  0
    2.0769    2.4777    0.0000 C   0  0  0  0  0  0  0  0  0  0  0  0
    3.9934    0.0000    0.0000 C   0  0  0  0  0  0  0  0  0  0  0  0
    0.4630    2.8207    0.0000 C   0  0  0  0  0  0  0  0  0  0  0  0
   -0.0469    4.3900    0.0000 C   0  0  0  0  0  0  0  0  0  0  0  0
    2.5645    0.8250    0.0000 C   0  0  0  0  0  0  0  0  0  0  0  0
    2.5645    0.0000    0.0000 C   0  0  0  0  0  0  0  0  0  0  0  0
   -1.1088    5.3461    0.0000 C   0  0  0  0  0  0  0  0  0  0  0  0
    1.7798    1.0799    0.0000 C   0  0  0  0  0  0  0  0  0  0  0  0
    1.5249    1.8646    0.0000 C   0  0  0  0  0  0  0  0  0  0  0  0
    1.2949    0.4125    0.0000 C   0  0  0  0  0  0  0  0  0  0  0  0
    4.7079   -0.4125    0.0000 C   0  0  0  0  0  0  0  0  0  0  0  0
    0.7179    2.0361    0.0000 N   0  0  0  0  0  0  0  0  0  0  0  0
    1.7798   -0.2549    0.0000 N   0  0  0  0  0  0  0  0  0  0  0  0
   -3.7847    6.6453    0.0000 N   0  0  0  0  0  0  0  0  0  0  0  0
   -0.3018    5.1746    0.0000 N   0  0  0  0  0  0  0  0  0  0  0  0
   -2.1707    6.3023    0.0000 N   0  0  0  0  0  0  0  0  0  0  0  0
   -1.6608    4.7330    0.0000 O   0  0  0  0  0  0  0  0  0  0  0  0
    0.4699    0.4125    0.0000 O   0  0  0  0  0  0  0  0  0  0  0  0
    5.4223   -0.0000    0.0000 O   0  0  0  0  0  0  0  0  0  0  0  0
    4.7079   -1.2375    0.0000 O   0  0  0  0  0  0  0  0  0  0  0  0
  5  4  2  0
  6  4  1  0
  7  5  1  0
  8  6  2  0
 12 10  2  0
 13 11  1  0
 14  9  2  0
 17 15  1  0
 18 16  1  0
 21  7  2  0
 21  8  1  0
 22  9  1  0
 22 19  2  0
 23 10  1  0
 23 11  2  0
 24 12  1  0
 24 13  2  0
 25 14  1  0
 26 19  1  0
 26 25  2  0
 27 20  1  0
 28 25  1  0
 29 21  1  0
 29 28  2  0
 30 28  1  0
 31 22  1  0
 32 23  1  0
 32 29  1  0
 33 26  1  0
 33 30  2  0
 34  1  1  0
 34 15  1  0
 34 16  1  0
 35  2  1  0
 35 24  1  0
 35 27  1  0
 36 17  1  0
 36 18  1  0
 36 20  1  0
 37 27  2  0
 38 30  1  0
 39 31  2  0
 40  3  1  0
 40 31  1  0
M  END
$$$$
