
     RDKit          2D

 23 25  0  0  0  0  0  0  0  0999 V2000
   -2.3446   -0.0726    0.0000 N   0  0  0  0  0  0  0  0  0  0  0  0
   -2.3495    0.7460    0.0000 C   0  0  0  0  0  0  0  0  0  0  0  0
   -3.1730   -0.0823    0.0000 C   0  0  0  0  0  0  0  0  0  0  0  0
   -3.1730    0.7460    0.0000 C   0  0  0  0  0  0  0  0  0  0  0  0
   -1.5598   -0.3293    0.0000 C   0  0  0  0  0  0  0  0  0  0  0  0
   -1.5647    1.0028    0.0000 S   0  0  0  0  0  0  0  0  0  0  0  0
   -1.0803    0.3391    0.0000 C   0  0  0  0  0  0  0  0  0  0  0  0
   -3.8901    1.1626    0.0000 N   0  0  0  0  0  0  0  0  0  0  0  0
   -1.5647   -1.1481    0.0000 C   0  0  0  0  0  0  0  0  0  0  0  0
   -4.6119    0.7460    0.0000 C   0  0  0  0  0  0  0  0  0  0  0  0
   -3.7544   -0.6636    0.0000 O   0  0  0  0  0  0  0  0  0  0  0  0
   -2.2865   -1.5550    0.0000 O   0  0  0  0  0  0  0  0  0  0  0  0
   -4.6119   -0.0726    0.0000 O   0  0  0  0  0  0  0  0  0  0  0  0
   -5.3239    1.1626    0.0000 C   0  0  0  0  0  0  0  0  0  0  0  0
   -0.8622   -1.5695    0.0000 O   0  0  0  0  0  0  0  0  0  0  0  0
   -0.3681   -0.0726    0.0000 C   0  0  0  0  0  0  0  0  0  0  0  0
   -0.3681    0.7556    0.0000 C   0  0  0  0  0  0  0  0  0  0  0  0
   -6.0361    0.7460    0.0000 C   0  0  0  0  0  0  0  0  0  0  0  0
   -6.0361   -0.0677    0.0000 C   0  0  0  0  0  0  0  0  0  0  0  0
   -6.7482    1.1626    0.0000 C   0  0  0  0  0  0  0  0  0  0  0  0
   -7.4603    0.7556    0.0000 C   0  0  0  0  0  0  0  0  0  0  0  0
   -6.7385   -0.4795    0.0000 C   0  0  0  0  0  0  0  0  0  0  0  0
   -7.4603   -0.0726    0.0000 C   0  0  0  0  0  0  0  0  0  0  0  0
  2  1  1  0
  3  1  1  0
  4  3  1  0
  5  1  1  0
  2  6  1  1
  7  5  1  0
  4  8  1  1
  5  9  1  6
 10  8  1  0
 11  3  2  0
 12  9  2  0
 13 10  2  0
 14 10  1  0
 15  9  1  0
 16  7  1  0
 17  7  1  0
 18 14  1  0
 19 18  2  0
 20 18  1  0
 21 20  2  0
 22 19  1  0
 23 21  1  0
  6  7  1  0
  4  2  1  0
 23 22  2  0
M  END
$$$$
