
     RDKit          2D

  4  3  0  0  0  0  0  0  0  0999 V2000
   -0.7004   -0.2461    0.0000 O   0  0  0  0  0  0  0  0  0  0  0  0
    0.0406    0.1649    0.0000 C   0  0  0  0  0  0  0  0  0  0  0  0
    0.0406    0.9899    0.0000 C   0  0  0  0  0  0  0  0  0  0  0  0
    0.7004   -0.2461    0.0000 O   0  0  0  0  0  0  0  0  0  0  0  0
  1  2  1  0
  2  3  1  0
  2  4  2  0
M  CHG  1   1  -1
M  END
$$$$
