
     RDKit          2D

 24 25  0  0  0  0  0  0  0  0999 V2000
   -6.4302    2.8875    0.0000 C   0  0  0  0  0  0  0  0  0  0  0  0
    2.8578    1.6500    0.0000 C   0  0  0  0  0  0  0  0  0  0  0  0
    2.1434    0.4125    0.0000 C   0  0  0  0  0  0  0  0  0  0  0  0
   -5.7157    2.4750    0.0000 C   0  0  0  0  0  0  0  0  0  0  0  0
   -5.0012    2.8875    0.0000 C   0  0  0  0  0  0  0  0  0  0  0  0
   -0.7144   -1.2375    0.0000 C   0  0  0  0  0  0  0  0  0  0  0  0
    0.0000   -0.8250    0.0000 C   0  0  0  0  0  0  0  0  0  0  0  0
   -1.4289   -0.8250    0.0000 C   0  0  0  0  0  0  0  0  0  0  0  0
    0.0000    0.0000    0.0000 C   0  0  0  0  0  0  0  0  0  0  0  0
   -1.4289    0.0000    0.0000 C   0  0  0  0  0  0  0  0  0  0  0  0
   -1.4289    2.4750    0.0000 C   0  0  0  0  0  0  0  0  0  0  0  0
   -2.1434    1.2375    0.0000 C   0  0  0  0  0  0  0  0  0  0  0  0
   -2.1434    2.8875    0.0000 C   0  0  0  0  0  0  0  0  0  0  0  0
   -2.8578    1.6500    0.0000 C   0  0  0  0  0  0  0  0  0  0  0  0
    1.4289    1.6500    0.0000 C   0  0  0  0  0  0  0  0  0  0  0  0
   -4.2868    2.4750    0.0000 C   0  0  0  0  0  0  0  0  0  0  0  0
    0.7144    1.2375    0.0000 C   0  0  0  0  0  0  0  0  0  0  0  0
   -0.7144    0.4125    0.0000 C   0  0  0  0  0  0  0  0  0  0  0  0
   -1.4289    1.6500    0.0000 C   0  0  0  0  0  0  0  0  0  0  0  0
   -2.8578    2.4750    0.0000 C   0  0  0  0  0  0  0  0  0  0  0  0
   -0.7144    1.2375    0.0000 C   0  0  0  0  0  0  0  0  0  0  0  0
    2.1434    1.2375    0.0000 N   0  0  0  0  0  0  0  0  0  0  0  0
   -3.5723    2.8875    0.0000 S   0  0  0  0  0  0  0  0  0  0  0  0
    0.0000    1.6500    0.0000 S   0  0  0  0  0  0  0  0  0  0  0  0
  4  1  1  0
  5  4  1  0
  7  6  2  0
  8  6  1  0
  9  7  1  0
 10  8  2  0
 13 11  2  0
 14 12  1  0
 16  5  1  0
 17 15  1  0
 18  9  2  0
 18 10  1  0
 19 11  1  0
 19 12  2  0
 20 13  1  0
 20 14  2  0
 21 18  1  0
 21 19  1  0
 22  2  1  0
 22  3  1  0
 22 15  1  0
 23 16  1  0
 23 20  1  0
 24 17  1  0
 24 21  1  0
M  END
$$$$
