
     RDKit          2D

 19 20  0  0  0  0  0  0  0  0999 V2000
   -2.9707   -0.0651    0.0000 C   0  0  0  0  0  0  0  0  0  0  0  0
   -2.2562   -0.4776    0.0000 N   0  0  0  0  0  0  0  0  0  0  0  0
   -2.2562   -1.3026    0.0000 C   0  0  0  0  0  0  0  0  0  0  0  0
   -1.5418   -0.0651    0.0000 C   0  0  0  0  0  0  0  0  0  0  0  0
   -0.8273   -0.4776    0.0000 C   0  0  0  0  0  0  0  0  0  0  0  0
   -0.1128   -0.0651    0.0000 C   0  0  0  0  0  0  0  0  0  0  0  0
    0.6017   -0.4776    0.0000 C   0  0  0  0  0  0  0  0  0  0  0  0
    1.3161   -0.0651    0.0000 C   0  0  0  0  0  0  0  0  0  0  0  0
    2.0306   -0.4776    0.0000 C   0  0  0  0  0  0  0  0  0  0  0  0
    2.0306   -1.3026    0.0000 C   0  0  0  0  0  0  0  0  0  0  0  0
    1.3161   -1.7151    0.0000 C   0  0  0  0  0  0  0  0  0  0  0  0
    0.6017   -1.3026    0.0000 C   0  0  0  0  0  0  0  0  0  0  0  0
    2.7451   -1.7151    0.0000 Cl  0  0  0  0  0  0  0  0  0  0  0  0
   -0.1128    0.7599    0.0000 C   0  0  0  0  0  0  0  0  0  0  0  0
   -0.8273    1.1724    0.0000 C   0  0  0  0  0  0  0  0  0  0  0  0
   -0.8273    1.9974    0.0000 C   0  0  0  0  0  0  0  0  0  0  0  0
   -0.1128    2.4099    0.0000 C   0  0  0  0  0  0  0  0  0  0  0  0
    0.6017    1.9974    0.0000 C   0  0  0  0  0  0  0  0  0  0  0  0
    0.6017    1.1724    0.0000 N   0  0  0  0  0  0  0  0  0  0  0  0
  1  2  1  0
  2  3  1  0
  2  4  1  0
  4  5  1  0
  6  5  1  6
  6  7  1  0
  7  8  2  0
  8  9  1  0
  9 10  2  0
 10 11  1  0
 11 12  2  0
  7 12  1  0
 10 13  1  0
  6 14  1  0
 14 15  2  0
 15 16  1  0
 16 17  2  0
 17 18  1  0
 18 19  2  0
 14 19  1  0
M  END
$$$$
