
     RDKit          2D

 23 25  0  0  0  0  0  0  0  0999 V2000
   -3.2309    0.6217    0.0000 C   0  0  0  0  0  0  0  0  0  0  0  0
    1.1664   -0.6157    0.0000 N   0  0  0  0  0  0  0  0  0  0  0  0
    1.9510    0.4641    0.0000 S   0  0  0  0  0  0  0  0  0  0  0  0
    3.1504   -0.6157    0.0000 C   0  0  0  0  0  0  0  0  0  0  0  0
    2.4359   -0.2032    0.0000 C   0  0  0  0  0  0  0  0  0  0  0  0
    3.1504    0.2092    0.0000 C   0  0  0  0  0  0  0  0  0  0  0  0
    1.9510   -0.8707    0.0000 C   0  0  0  0  0  0  0  0  0  0  0  0
    3.0129   -1.8268    0.0000 O   0  0  0  0  0  0  0  0  0  0  0  0
    2.2059   -1.6553    0.0000 C   0  0  0  0  0  0  0  0  0  0  0  0
    1.6539   -2.2684    0.0000 O   0  0  0  0  0  0  0  0  0  0  0  0
    0.3414    0.2092    0.0000 C   0  0  0  0  0  0  0  0  0  0  0  0
   -0.3730    0.6217    0.0000 N   0  0  0  0  0  0  0  0  0  0  0  0
   -1.0875    0.2092    0.0000 C   0  0  0  0  0  0  0  0  0  0  0  0
   -1.0875   -0.6157    0.0000 O   0  0  0  0  0  0  0  0  0  0  0  0
   -1.8019    0.6217    0.0000 C   0  0  0  0  0  0  0  0  0  0  0  0
   -3.9454    0.2092    0.0000 C   0  0  0  0  0  0  0  0  0  0  0  0
   -3.9454   -0.6157    0.0000 C   0  0  0  0  0  0  0  0  0  0  0  0
   -3.2309   -1.0282    0.0000 C   0  0  0  0  0  0  0  0  0  0  0  0
   -2.5164   -0.6157    0.0000 C   0  0  0  0  0  0  0  0  0  0  0  0
   -2.5164    0.2092    0.0000 C   0  0  0  0  0  0  0  0  0  0  0  0
    0.3414   -0.6157    0.0000 C   0  0  0  0  0  0  0  0  0  0  0  0
   -0.2419   -1.1991    0.0000 O   0  0  0  0  0  0  0  0  0  0  0  0
    1.1664    0.2092    0.0000 C   0  0  0  0  0  0  0  0  0  0  0  0
  1 16  2  0
  1 20  1  0
 23 11  1  0
 11 21  1  0
 21  2  1  0
  2  7  1  0
 23  2  1  0
 23  3  1  1
  3  5  1  0
  7  5  1  0
  5  4  1  0
  5  6  1  0
  7  9  1  6
  9  8  1  0
  9 10  2  0
 11 12  1  1
 12 13  1  0
 13 15  1  0
 13 14  2  0
 15 20  1  0
 16 17  1  0
 17 18  2  0
 18 19  1  0
 19 20  2  0
 21 22  2  0
M  CHG  1   8  -1
M  END
$$$$
