
     RDKit          2D

 32 33  0  0  1  0  0  0  0  0999 V2000
   -4.2868    0.8250    0.0000 C   0  0  0  0  0  0  0  0  0  0  0  0
   -5.0012    1.2375    0.0000 C   0  0  0  0  0  0  0  0  0  0  0  0
   -3.5723    1.2375    0.0000 C   0  0  0  0  0  0  0  0  0  0  0  0
   -5.7157    0.8250    0.0000 C   0  0  0  0  0  0  0  0  0  0  0  0
  -12.1460    2.0625    0.0000 C   0  0  0  0  0  0  0  0  0  0  0  0
  -12.1460    1.2375    0.0000 C   0  0  0  0  0  0  0  0  0  0  0  0
  -11.4315    2.4750    0.0000 C   0  0  0  0  0  0  0  0  0  0  0  0
    0.0000    0.0000    0.0000 C   0  0  0  0  0  0  0  0  0  0  0  0
    0.7144   -0.4125    0.0000 C   0  0  0  0  0  0  0  0  0  0  0  0
   -2.8578    0.8250    0.0000 C   0  0  0  0  0  0  0  0  0  0  0  0
   -6.4302    1.2375    0.0000 C   0  0  0  0  0  0  0  0  0  0  0  0
   -7.8591    1.2375    0.0000 C   0  0  0  0  0  0  0  0  0  0  0  0
   -8.5736    0.8250    0.0000 C   0  0  0  0  0  0  0  0  0  0  0  0
    0.7144    1.2375    0.0000 C   0  0  0  0  0  0  0  0  0  0  0  0
   -1.4289    0.8250    0.0000 C   0  0  0  0  0  0  0  0  0  0  0  0
    2.1434    1.2375    0.0000 C   0  0  0  0  0  0  0  0  0  0  0  0
  -10.0025    0.8250    0.0000 C   0  0  0  0  0  0  0  0  0  0  0  0
    0.0000    0.8250    0.0000 C   0  0  0  0  0  0  0  0  0  0  0  0
    1.4289    0.8250    0.0000 C   0  0  0  0  0  0  0  0  0  0  0  0
  -10.7170    1.2375    0.0000 C   0  0  0  0  0  0  0  0  0  0  0  0
  -11.4315    0.8250    0.0000 C   0  0  0  0  0  0  0  0  0  0  0  0
  -10.7170    2.0625    0.0000 C   0  0  0  0  0  0  0  0  0  0  0  0
    1.4289    0.0000    0.0000 C   0  0  0  0  0  0  0  0  0  0  0  0
   -0.7144    1.2375    0.0000 C   0  0  0  0  0  0  0  0  0  0  0  0
  -11.4315    0.0000    0.0000 Cl  0  0  0  0  0  0  0  0  0  0  0  0
  -10.0025    2.4750    0.0000 Cl  0  0  0  0  0  0  0  0  0  0  0  0
   -2.1434    1.2375    0.0000 N   0  0  0  0  0  0  0  0  0  0  0  0
    2.1434    2.0625    0.0000 O   0  0  0  0  0  0  0  0  0  0  0  0
    2.1434   -0.4125    0.0000 O   0  0  0  0  0  0  0  0  0  0  0  0
   -0.7144    2.0625    0.0000 O   0  0  0  0  0  0  0  0  0  0  0  0
   -7.1447    0.8250    0.0000 O   0  0  0  0  0  0  0  0  0  0  0  0
   -9.2881    1.2375    0.0000 O   0  0  0  0  0  0  0  0  0  0  0  0
  2  1  1  0
  3  1  1  0
  4  2  1  0
  6  5  2  0
  7  5  1  0
  9  8  2  0
 10  3  1  0
 11  4  1  0
 13 12  1  0
 18  8  1  0
 18 14  2  0
 19 14  1  0
 19 16  1  0
 20 17  1  0
 21  6  1  0
 21 20  2  0
 22  7  2  0
 22 20  1  0
 23  9  1  0
 23 19  2  0
 24 15  1  0
 24 18  1  0
 25 21  1  0
 26 22  1  0
 27 10  1  0
 27 15  1  0
 28 16  1  0
 29 23  1  0
 24 30  1  6
 31 11  1  0
 31 12  1  0
 32 13  1  0
 32 17  1  0
M  END
$$$$
