
     RDKit          2D

  8  7  0  0  0  0  0  0  0  0999 V2000
    4.7633   -1.4289    0.0000 C   0  0  0  0  0  0  0  0  0  0  0  0
    4.7633   -3.0789    0.0000 C   0  0  0  0  0  0  0  0  0  0  0  0
    6.4133   -0.8250    0.0000 C   0  0  0  0  0  0  0  0  0  0  0  0
    3.5258   -2.9684    0.0000 C   0  0  0  0  0  0  0  0  0  0  0  0
    5.5883   -2.2539    0.0000 C   0  0  0  0  0  0  0  0  0  0  0  0
    4.7633   -2.2539    0.0000 C   0  0  0  0  0  0  0  0  0  0  0  0
    6.0008   -1.5394    0.0000 N   0  0  0  0  0  0  0  0  0  0  0  0
    3.9383   -2.2539    0.0000 O   0  0  0  0  0  0  0  0  0  0  0  0
  6  1  1  0
  6  2  1  0
  6  5  1  0
  7  3  3  0
  7  5  1  0
  8  4  1  0
  8  6  1  0
M  CHG  2   3  -1   7   1
M  END
$$$$
