
     RDKit          2D

 67 68  0  0  0  0  0  0  0  0999 V2000
   -2.8340   -0.2653    0.0000 C   0  0  0  0  0  0  0  0  0  0  0  0
    2.8099   -0.2122    0.0000 C   0  0  0  0  0  0  0  0  0  0  0  0
    3.5093   -1.4375    0.0000 C   0  0  0  0  0  0  0  0  0  0  0  0
   -3.5672   -1.5098    0.0000 C   0  0  0  0  0  0  0  0  0  0  0  0
    2.1490   -1.4424    0.0000 C   0  0  0  0  0  0  0  0  0  0  0  0
   -2.1539   -1.4664    0.0000 C   0  0  0  0  0  0  0  0  0  0  0  0
    3.5093   -0.5884    0.0000 C   0  0  0  0  0  0  0  0  0  0  0  0
   -3.5672   -0.6463    0.0000 C   0  0  0  0  0  0  0  0  0  0  0  0
   -2.1539   -0.6608    0.0000 C   0  0  0  0  0  0  0  0  0  0  0  0
    2.1490   -0.5884    0.0000 C   0  0  0  0  0  0  0  0  0  0  0  0
    2.8099   -1.8476    0.0000 C   0  0  0  0  0  0  0  0  0  0  0  0
   -2.8340   -1.8765    0.0000 C   0  0  0  0  0  0  0  0  0  0  0  0
   -2.8436    0.5692    0.0000 C   0  0  0  0  0  0  0  0  0  0  0  0
    2.8147    0.6174    0.0000 C   0  0  0  0  0  0  0  0  0  0  0  0
    4.2185   -1.8476    0.0000 C   0  0  0  0  0  0  0  0  0  0  0  0
   -4.2764   -1.9199    0.0000 C   0  0  0  0  0  0  0  0  0  0  0  0
    0.6680   -1.4664    0.0000 C   0  0  0  0  0  0  0  0  0  0  0  0
   -0.7452   -1.4664    0.0000 C   0  0  0  0  0  0  0  0  0  0  0  0
    1.3530   -1.9006    0.0000 N   0  0  0  0  0  0  0  0  0  0  0  0
   -1.4303   -1.9006    0.0000 N   0  0  0  0  0  0  0  0  0  0  0  0
   -0.0217   -1.9006    0.0000 C   0  0  0  0  0  0  0  0  0  0  0  0
    3.5382    1.0372    0.0000 N   0  0  0  0  0  0  0  0  0  0  0  0
   -3.5672    0.9889    0.0000 N   0  0  0  0  0  0  0  0  0  0  0  0
    4.9131   -1.4375    0.0000 N   0  0  0  0  0  0  0  0  0  0  0  0
   -4.9468   -1.5098    0.0000 N   0  0  0  0  0  0  0  0  0  0  0  0
    3.5382    1.8716    0.0000 C   0  0  0  0  0  0  0  0  0  0  0  0
   -3.5721    1.8282    0.0000 C   0  0  0  0  0  0  0  0  0  0  0  0
    5.6222   -1.8476    0.0000 C   0  0  0  0  0  0  0  0  0  0  0  0
   -5.6560   -1.9199    0.0000 C   0  0  0  0  0  0  0  0  0  0  0  0
    2.0911    1.0467    0.0000 O   0  0  0  0  0  0  0  0  0  0  0  0
   -2.1249    0.9937    0.0000 O   0  0  0  0  0  0  0  0  0  0  0  0
    4.2329   -2.6724    0.0000 O   0  0  0  0  0  0  0  0  0  0  0  0
   -4.2764   -2.7544    0.0000 O   0  0  0  0  0  0  0  0  0  0  0  0
    0.6680   -0.6608    0.0000 O   0  0  0  0  0  0  0  0  0  0  0  0
   -0.7452   -0.6319    0.0000 O   0  0  0  0  0  0  0  0  0  0  0  0
    4.2715    2.2817    0.0000 C   0  0  0  0  0  0  0  0  0  0  0  0
   -4.3053    2.2334    0.0000 C   0  0  0  0  0  0  0  0  0  0  0  0
    6.3168   -1.4375    0.0000 C   0  0  0  0  0  0  0  0  0  0  0  0
   -6.3603   -1.5147    0.0000 C   0  0  0  0  0  0  0  0  0  0  0  0
    2.8243   -2.6580    0.0000 I   0  0  0  0  0  0  0  0  0  0  0  0
    4.1895   -0.2122    0.0000 I   0  0  0  0  0  0  0  0  0  0  0  0
   -2.8195   -2.7014    0.0000 I   0  0  0  0  0  0  0  0  0  0  0  0
   -4.2522   -0.2122    0.0000 I   0  0  0  0  0  0  0  0  0  0  0  0
    1.4977   -0.1109    0.0000 I   0  0  0  0  0  0  0  0  0  0  0  0
   -1.4447   -0.2653    0.0000 I   0  0  0  0  0  0  0  0  0  0  0  0
    4.2764    3.1210    0.0000 O   0  0  0  0  0  0  0  0  0  0  0  0
   -4.3053    3.0727    0.0000 O   0  0  0  0  0  0  0  0  0  0  0  0
    6.3168   -0.5884    0.0000 O   0  0  0  0  0  0  0  0  0  0  0  0
   -6.3603   -0.6897    0.0000 O   0  0  0  0  0  0  0  0  0  0  0  0
    1.3530   -2.7014    0.0000 C   0  0  0  0  0  0  0  0  0  0  0  0
   -1.4303   -2.7014    0.0000 C   0  0  0  0  0  0  0  0  0  0  0  0
   -2.8485    2.2383    0.0000 C   0  0  0  0  0  0  0  0  0  0  0  0
    2.8243    2.2913    0.0000 C   0  0  0  0  0  0  0  0  0  0  0  0
    5.6367   -2.6724    0.0000 C   0  0  0  0  0  0  0  0  0  0  0  0
   -5.6560   -2.7544    0.0000 C   0  0  0  0  0  0  0  0  0  0  0  0
   -2.1345    1.8282    0.0000 O   0  0  0  0  0  0  0  0  0  0  0  0
    2.1008    1.8765    0.0000 O   0  0  0  0  0  0  0  0  0  0  0  0
   -4.9034   -3.1210    0.0000 O   0  0  0  0  0  0  0  0  0  0  0  0
    6.3603   -3.0776    0.0000 O   0  0  0  0  0  0  0  0  0  0  0  0
    5.7090    2.2768    0.0000 O   0  0  0  0  0  0  0  0  0  0  0  0
   -5.7429    2.2238    0.0000 O   0  0  0  0  0  0  0  0  0  0  0  0
    7.7640   -1.4424    0.0000 O   0  0  0  0  0  0  0  0  0  0  0  0
   -7.7640   -1.5532    0.0000 O   0  0  0  0  0  0  0  0  0  0  0  0
   -5.0192    1.8137    0.0000 C   0  0  0  0  0  0  0  0  0  0  0  0
    4.9855    1.8620    0.0000 C   0  0  0  0  0  0  0  0  0  0  0  0
   -7.0404   -1.9199    0.0000 C   0  0  0  0  0  0  0  0  0  0  0  0
    7.0259   -1.8476    0.0000 C   0  0  0  0  0  0  0  0  0  0  0  0
  2 10  2  0
  3 11  1  0
  4  8  1  0
  5 19  1  0
  6  9  2  0
  7  3  2  0
  8  1  2  0
  9  1  1  0
 10  5  1  0
 11  5  2  0
 12  6  1  0
 13  1  1  0
 14  2  1  0
 15  3  1  0
 16  4  1  0
 17 21  1  0
 18 20  1  0
 19 17  1  0
 20  6  1  0
 21 18  1  0
 22 14  1  0
 23 13  1  0
 24 15  1  0
 25 16  1  0
 26 22  1  0
 27 23  1  0
 28 24  1  0
 29 25  1  0
 30 14  2  0
 31 13  2  0
 32 15  2  0
 33 16  2  0
 34 17  2  0
 35 18  2  0
 36 26  1  0
 37 27  1  0
 38 28  1  0
 39 29  1  0
 40 11  1  0
 41  7  1  0
 42 12  1  0
 43  8  1  0
 44 10  1  0
 45  9  1  0
 46 36  1  0
 47 37  1  0
 48 38  1  0
 49 39  1  0
 50 19  1  0
 51 20  1  0
 52 27  1  0
 53 26  1  0
 54 28  1  0
 55 29  1  0
 56 52  1  0
 57 53  1  0
 58 55  1  0
 59 54  1  0
 60 65  1  0
 61 64  1  0
 62 67  1  0
 63 66  1  0
 64 37  1  0
 65 36  1  0
 66 39  1  0
 67 38  1  0
 12  4  2  0
  2  7  1  0
M  END
$$$$
