
     RDKit          2D

 34 37  0  0  0  0  0  0  0  0999 V2000
    4.4761   -5.0923    0.0000 O   0  0  0  0  0  0  0  0  0  0  0  0
    3.8039   -4.6034    0.0000 C   0  0  0  0  0  0  0  0  0  0  0  0
    3.8039   -3.7784    0.0000 N   0  0  0  0  0  0  0  0  0  0  0  0
    3.0197   -4.8580    0.0000 S   0  0  0  0  0  0  0  0  0  0  0  0
    2.5308   -4.1960    0.0000 C   0  0  0  0  0  0  0  0  0  0  0  0
    1.7059   -4.1960    0.0000 C   0  0  0  0  0  0  0  0  0  0  0  0
    1.2985   -3.4832    0.0000 C   0  0  0  0  0  0  0  0  0  0  0  0
    1.7059   -2.7702    0.0000 C   0  0  0  0  0  0  0  0  0  0  0  0
    1.2985   -2.0471    0.0000 C   0  0  0  0  0  0  0  0  0  0  0  0
    0.4735   -2.0471    0.0000 C   0  0  0  0  0  0  0  0  0  0  0  0
    0.0560   -1.3342    0.0000 O   0  0  0  0  0  0  0  0  0  0  0  0
   -0.7689   -1.3342    0.0000 C   0  0  0  0  0  0  0  0  0  0  0  0
   -1.1763   -0.6212    0.0000 C   0  0  0  0  0  0  0  0  0  0  0  0
   -2.0012   -0.6212    0.0000 N   0  0  0  0  0  0  0  0  0  0  0  0
   -2.4188    0.0916    0.0000 C   0  0  0  0  0  0  0  0  0  0  0  0
   -2.0012    0.8045    0.0000 C   0  0  0  0  0  0  0  0  0  0  0  0
   -2.4188    1.5175    0.0000 C   0  0  0  0  0  0  0  0  0  0  0  0
   -2.0012    2.2304    0.0000 O   0  0  0  0  0  0  0  0  0  0  0  0
   -2.4188    2.9535    0.0000 C   0  0  0  0  0  0  0  0  0  0  0  0
   -2.0012    3.6664    0.0000 C   0  0  0  0  0  0  0  0  0  0  0  0
   -2.4188    4.3794    0.0000 C   0  0  0  0  0  0  0  0  0  0  0  0
   -3.2438    4.3794    0.0000 C   0  0  0  0  0  0  0  0  0  0  0  0
   -3.6511    5.0923    0.0000 O   0  0  0  0  0  0  0  0  0  0  0  0
   -4.4761    5.0923    0.0000 C   0  0  0  0  0  0  0  0  0  0  0  0
   -3.6511    3.6664    0.0000 C   0  0  0  0  0  0  0  0  0  0  0  0
   -3.2438    2.9535    0.0000 C   0  0  0  0  0  0  0  0  0  0  0  0
   -3.2438    1.5175    0.0000 N   0  0  0  0  0  0  0  0  0  0  0  0
   -3.6511    0.8045    0.0000 C   0  0  0  0  0  0  0  0  0  0  0  0
   -3.2438    0.0916    0.0000 N   0  0  0  0  0  0  0  0  0  0  0  0
   -2.4188   -1.3342    0.0000 C   0  0  0  0  0  0  0  0  0  0  0  0
    0.0560   -2.7702    0.0000 C   0  0  0  0  0  0  0  0  0  0  0  0
    0.4735   -3.4832    0.0000 C   0  0  0  0  0  0  0  0  0  0  0  0
    3.0197   -3.5239    0.0000 C   0  0  0  0  0  0  0  0  0  0  0  0
    2.7650   -2.7397    0.0000 O   0  0  0  0  0  0  0  0  0  0  0  0
  1  2  2  0
  2  3  1  0
  2  4  1  0
  3 33  1  0
  4  5  1  0
  5  6  1  0
  5 33  1  0
  6  7  1  0
  7  8  2  0
  7 32  1  0
  8  9  1  0
  9 10  2  0
 10 11  1  0
 10 31  1  0
 11 12  1  0
 12 13  1  0
 13 14  1  0
 14 15  1  0
 14 30  1  0
 15 16  2  0
 15 29  1  0
 16 17  1  0
 17 18  1  0
 17 27  2  0
 18 19  1  0
 19 20  2  0
 19 26  1  0
 20 21  1  0
 21 22  2  0
 22 23  1  0
 22 25  1  0
 23 24  1  0
 25 26  2  0
 27 28  1  0
 28 29  2  0
 31 32  2  0
 33 34  2  0
M  END
$$$$
