
     RDKit          2D

 17 20  0  0  0  0  0  0  0  0999 V2000
   -1.6089    0.3918    0.0000 C   0  0  0  0  0  0  0  0  0  0  0  0
   -1.6089   -0.4332    0.0000 C   0  0  0  0  0  0  0  0  0  0  0  0
   -0.9076   -0.8457    0.0000 C   0  0  0  0  0  0  0  0  0  0  0  0
   -0.2062   -0.4332    0.0000 C   0  0  0  0  0  0  0  0  0  0  0  0
   -0.2062    0.3918    0.0000 C   0  0  0  0  0  0  0  0  0  0  0  0
   -0.9076    0.8044    0.0000 C   0  0  0  0  0  0  0  0  0  0  0  0
    0.5776   -0.6807    0.0000 N   0  0  0  0  0  0  0  0  0  0  0  0
    1.0726   -0.0206    0.0000 C   0  0  0  0  0  0  0  0  0  0  0  0
    0.5776    0.6394    0.0000 C   0  0  0  0  0  0  0  0  0  0  0  0
    1.8977   -0.0206    0.0000 C   0  0  0  0  0  0  0  0  0  0  0  0
   -2.3103    0.8044    0.0000 C   0  0  0  0  0  0  0  0  0  0  0  0
    1.0313    1.4233    0.0000 C   0  0  0  0  0  0  0  0  0  0  0  0
    2.3103    0.7219    0.0000 C   0  0  0  0  0  0  0  0  0  0  0  0
    1.8564    1.4233    0.0000 C   0  0  0  0  0  0  0  0  0  0  0  0
    1.0313   -1.4233    0.0000 C   0  0  0  0  0  0  0  0  0  0  0  0
    1.8564   -1.4233    0.0000 C   0  0  0  0  0  0  0  0  0  0  0  0
    2.2690   -0.7219    0.0000 N   0  0  0  0  0  0  0  0  0  0  0  0
  1  2  2  0
  2  3  1  0
  3  4  2  0
  4  5  1  0
  5  6  2  0
  1  6  1  0
  4  7  1  0
  7  8  1  0
  8  9  2  0
  5  9  1  0
  8 10  1  0
  1 11  1  0
 12  9  1  0
 10 13  1  0
 13 14  1  0
 12 14  1  0
  7 15  1  0
 15 16  1  0
 16 17  1  0
 17 10  1  0
M  END
$$$$
