
     RDKit          2D

 21 23  0  0  0  0  0  0  0  0999 V2000
   -0.2849    0.1127    0.0000 C   0  0  0  0  0  0  0  0  0  0  0  0
   -1.0009    0.4396    0.0000 C   0  0  0  0  0  0  0  0  0  0  0  0
    0.4175    0.4396    0.0000 C   0  0  0  0  0  0  0  0  0  0  0  0
   -0.7224    1.9553    0.0000 S   0  0  0  0  0  0  0  0  0  0  0  0
   -1.2130    1.2615    0.0000 C   0  0  0  0  0  0  0  0  0  0  0  0
   -0.2849   -0.7092    0.0000 C   0  0  0  0  0  0  0  0  0  0  0  0
    0.6517    1.2925    0.0000 C   0  0  0  0  0  0  0  0  0  0  0  0
    0.1790    1.9553    0.0000 C   0  0  0  0  0  0  0  0  0  0  0  0
    1.8626   -1.1334    0.0000 N   0  0  0  0  0  0  0  0  0  0  0  0
    0.4441   -1.1334    0.0000 C   0  0  0  0  0  0  0  0  0  0  0  0
    1.0097   -0.1171    0.0000 C   0  0  0  0  0  0  0  0  0  0  0  0
   -1.5974   -0.1392    0.0000 C   0  0  0  0  0  0  0  0  0  0  0  0
    1.1555   -0.7269    0.0000 C   0  0  0  0  0  0  0  0  0  0  0  0
   -2.0129    1.4782    0.0000 C   0  0  0  0  0  0  0  0  0  0  0  0
    1.4339    1.5002    0.0000 C   0  0  0  0  0  0  0  0  0  0  0  0
    2.5917   -0.7269    0.0000 C   0  0  0  0  0  0  0  0  0  0  0  0
    1.8626   -1.9553    0.0000 C   0  0  0  0  0  0  0  0  0  0  0  0
    1.7963    0.0994    0.0000 C   0  0  0  0  0  0  0  0  0  0  0  0
   -2.3840    0.0861    0.0000 C   0  0  0  0  0  0  0  0  0  0  0  0
   -2.5917    0.8903    0.0000 C   0  0  0  0  0  0  0  0  0  0  0  0
    2.0172    0.9036    0.0000 C   0  0  0  0  0  0  0  0  0  0  0  0
  2  1  1  0
  3  1  1  0
  4  5  1  0
  5  2  2  0
  6  1  2  0
  7  3  2  0
  8  7  1  0
  9 13  1  0
 10  6  1  0
 11  3  1  0
 12  2  1  0
 13 10  1  0
 14  5  1  0
 15  7  1  0
 16  9  1  0
 17  9  1  0
 18 11  2  0
 19 12  2  0
 20 19  1  0
 21 18  1  0
  4  8  1  0
 21 15  2  0
 20 14  2  0
M  END
$$$$
