
     RDKit          2D

 19 21  0  0  0  0  0  0  0  0999 V2000
    1.9476    0.0533    0.0000 N   0  0  0  0  0  0  0  0  0  0  0  0
    1.9476   -0.7591    0.0000 C   0  0  0  0  0  0  0  0  0  0  0  0
    1.2570   -1.1654    0.0000 N   0  0  0  0  0  0  0  0  0  0  0  0
    0.5257   -0.7591    0.0000 C   0  0  0  0  0  0  0  0  0  0  0  0
    0.5257    0.0533    0.0000 C   0  0  0  0  0  0  0  0  0  0  0  0
    1.2570    0.4595    0.0000 C   0  0  0  0  0  0  0  0  0  0  0  0
   -0.2460   -1.0029    0.0000 N   0  0  0  0  0  0  0  0  0  0  0  0
   -0.6929   -0.3529    0.0000 C   0  0  0  0  0  0  0  0  0  0  0  0
   -0.2460    0.2970    0.0000 N   0  0  0  0  0  0  0  0  0  0  0  0
    1.2570    1.2719    0.0000 O   0  0  0  0  0  0  0  0  0  0  0  0
    2.6382   -1.1654    0.0000 O   0  0  0  0  0  0  0  0  0  0  0  0
   -0.5104    1.0653    0.0000 C   0  0  0  0  0  0  0  0  0  0  0  0
   -1.3278    1.2245    0.0000 C   0  0  0  0  0  0  0  0  0  0  0  0
   -1.6760    1.9724    0.0000 O   0  0  0  0  0  0  0  0  0  0  0  0
   -2.4950    1.8722    0.0000 C   0  0  0  0  0  0  0  0  0  0  0  0
   -2.6529    1.0625    0.0000 C   0  0  0  0  0  0  0  0  0  0  0  0
   -1.9315    0.6621    0.0000 O   0  0  0  0  0  0  0  0  0  0  0  0
    1.2261   -1.9724    0.0000 C   0  0  0  0  0  0  0  0  0  0  0  0
    2.6529    0.4567    0.0000 C   0  0  0  0  0  0  0  0  0  0  0  0
  1  2  1  0
  2  3  1  0
  3  4  1  0
  4  5  2  0
  5  6  1  0
  1  6  1  0
  4  7  1  0
  7  8  2  0
  8  9  1  0
  5  9  1  0
  6 10  2  0
  2 11  2  0
  9 12  1  0
 12 13  1  0
 13 14  1  0
 14 15  1  0
 15 16  1  0
 16 17  1  0
 13 17  1  0
  3 18  1  0
  1 19  1  0
M  END
$$$$
