
     RDKit          2D

 17 18  0  0  0  0  0  0  0  0999 V2000
   -1.8551    0.0000    0.0000 C   0  0  0  0  0  0  0  0  0  0  0  0
   -1.8551   -0.8250    0.0000 C   0  0  0  0  0  0  0  0  0  0  0  0
   -1.1405   -1.2376    0.0000 C   0  0  0  0  0  0  0  0  0  0  0  0
   -0.4260   -0.8250    0.0000 C   0  0  0  0  0  0  0  0  0  0  0  0
   -0.4260    0.0000    0.0000 C   0  0  0  0  0  0  0  0  0  0  0  0
   -1.1405    0.4126    0.0000 C   0  0  0  0  0  0  0  0  0  0  0  0
   -2.6398    0.2549    0.0000 O   0  0  0  0  0  0  0  0  0  0  0  0
   -3.1248   -0.4124    0.0000 C   0  0  0  0  0  0  0  0  0  0  0  0
   -2.6398   -1.0799    0.0000 O   0  0  0  0  0  0  0  0  0  0  0  0
    0.2995    0.4191    0.0000 C   0  0  0  0  0  0  0  0  0  0  0  0
    1.0098    0.0090    0.0000 C   0  0  0  0  0  0  0  0  0  0  0  0
    1.7066    0.4114    0.0000 C   0  0  0  0  0  0  0  0  0  0  0  0
    2.4103    0.0052    0.0000 C   0  0  0  0  0  0  0  0  0  0  0  0
    1.7066    1.2376    0.0000 O   0  0  0  0  0  0  0  0  0  0  0  0
    3.1248   -0.4072    0.0000 C   0  0  0  0  0  0  0  0  0  0  0  0
    1.9916   -0.7202    0.0000 C   0  0  0  0  0  0  0  0  0  0  0  0
    2.8163    0.7089    0.0000 C   0  0  0  0  0  0  0  0  0  0  0  0
  1  2  1  0
  2  3  2  0
  3  4  1  0
  4  5  2  0
  5  6  1  0
  1  6  2  0
  1  7  1  0
  7  8  1  0
  8  9  1  0
  2  9  1  0
  5 10  1  0
 10 11  2  0
 11 12  1  0
 12 13  1  0
 12 14  1  0
 13 15  1  0
 13 16  1  0
 13 17  1  0
M  END
$$$$
