
     RDKit          2D

 30 31  0  0  0  0  0  0  0  0999 V2000
   -2.8234   -1.9856    0.0000 O   0  0  0  0  0  0  0  0  0  0  0  0
   -2.1175   -3.2273    0.0000 O   0  0  0  0  0  0  0  0  0  0  0  0
    1.4201   -1.1438    0.0000 O   0  0  0  0  0  0  0  0  0  0  0  0
    3.5462   -3.2273    0.0000 O   0  0  0  0  0  0  0  0  0  0  0  0
    4.2520   -1.9856    0.0000 O   0  0  0  0  0  0  0  0  0  0  0  0
    0.7143   -2.3939    0.0000 N   0  0  0  0  0  0  0  0  0  0  0  0
    0.0085   -1.9856    0.0000 C   0  0  0  0  0  0  0  0  0  0  0  0
   -1.4031   -1.9856    0.0000 C   0  0  0  0  0  0  0  0  0  0  0  0
   -0.6973   -2.3939    0.0000 C   0  0  0  0  0  0  0  0  0  0  0  0
    0.4252   -1.2628    0.0000 C   0  0  0  0  0  0  0  0  0  0  0  0
    0.2125   -0.4549    0.0000 C   0  0  0  0  0  0  0  0  0  0  0  0
   -2.1175   -2.3939    0.0000 C   0  0  0  0  0  0  0  0  0  0  0  0
   -0.5527    0.9822    0.0000 C   0  0  0  0  0  0  0  0  0  0  0  0
    1.4201   -1.9856    0.0000 C   0  0  0  0  0  0  0  0  0  0  0  0
    0.6633    0.2508    0.0000 C   0  0  0  0  0  0  0  0  0  0  0  0
   -0.5783   -0.4209    0.0000 C   0  0  0  0  0  0  0  0  0  0  0  0
   -1.8198   -1.2628    0.0000 C   0  0  0  0  0  0  0  0  0  0  0  0
   -0.9354    1.7475    0.0000 C   0  0  0  0  0  0  0  0  0  0  0  0
    0.2296    0.9907    0.0000 C   0  0  0  0  0  0  0  0  0  0  0  0
   -1.0034    0.3188    0.0000 C   0  0  0  0  0  0  0  0  0  0  0  0
    2.1260   -2.3939    0.0000 C   0  0  0  0  0  0  0  0  0  0  0  0
   -0.4932    2.4449    0.0000 C   0  0  0  0  0  0  0  0  0  0  0  0
   -1.7688    1.7816    0.0000 C   0  0  0  0  0  0  0  0  0  0  0  0
   -3.5291   -2.3939    0.0000 C   0  0  0  0  0  0  0  0  0  0  0  0
   -0.8844    3.2273    0.0000 C   0  0  0  0  0  0  0  0  0  0  0  0
   -2.1175    2.5214    0.0000 C   0  0  0  0  0  0  0  0  0  0  0  0
    2.8403   -1.9856    0.0000 C   0  0  0  0  0  0  0  0  0  0  0  0
   -1.7093    3.2188    0.0000 C   0  0  0  0  0  0  0  0  0  0  0  0
    3.5462   -2.3939    0.0000 C   0  0  0  0  0  0  0  0  0  0  0  0
   -4.2520   -1.9771    0.0000 C   0  0  0  0  0  0  0  0  0  0  0  0
  1 12  1  0
  1 24  1  0
  2 12  2  0
  3 14  2  0
  4 29  2  0
  5 29  1  0
  6  7  1  0
  6 14  1  0
  7  9  1  1
  7 10  1  0
  8  9  1  0
  8 12  1  0
  8 17  1  6
 10 11  1  0
 11 15  2  0
 11 16  1  0
 13 18  1  0
 13 19  2  0
 13 20  1  0
 14 21  1  0
 15 19  1  0
 16 20  2  0
 18 22  2  0
 18 23  1  0
 21 27  1  0
 22 25  1  0
 23 26  2  0
 24 30  1  0
 25 28  2  0
 26 28  1  0
 27 29  1  0
M  END
$$$$
