
     RDKit          2D

 24 26  0  0  0  0  0  0  0  0999 V2000
   -2.1189    0.2977    0.0000 O   0  0  0  0  0  0  0  0  0  0  0  0
   -1.4012   -0.1172    0.0000 C   0  0  0  0  0  0  0  0  0  0  0  0
   -1.4012   -0.9423    0.0000 N   0  0  0  0  0  0  0  0  0  0  0  0
   -0.6883    0.2977    0.0000 C   0  0  0  0  0  0  0  0  0  0  0  0
   -1.0985    1.0106    0.0000 C   0  0  0  0  0  0  0  0  0  0  0  0
   -0.6883    1.7283    0.0000 C   0  0  0  0  0  0  0  0  0  0  0  0
   -1.0985    2.4410    0.0000 C   0  0  0  0  0  0  0  0  0  0  0  0
   -1.9235    2.4410    0.0000 C   0  0  0  0  0  0  0  0  0  0  0  0
   -2.3385    1.7283    0.0000 C   0  0  0  0  0  0  0  0  0  0  0  0
   -1.9235    1.0106    0.0000 C   0  0  0  0  0  0  0  0  0  0  0  0
    0.0292    0.7079    0.0000 C   0  0  0  0  0  0  0  0  0  0  0  0
    0.7421    0.2977    0.0000 C   0  0  0  0  0  0  0  0  0  0  0  0
    1.4598    0.7079    0.0000 C   0  0  0  0  0  0  0  0  0  0  0  0
    1.4598    1.5329    0.0000 C   0  0  0  0  0  0  0  0  0  0  0  0
    0.7421    1.9479    0.0000 C   0  0  0  0  0  0  0  0  0  0  0  0
    0.0292    1.5329    0.0000 C   0  0  0  0  0  0  0  0  0  0  0  0
   -0.2733   -0.4198    0.0000 C   0  0  0  0  0  0  0  0  0  0  0  0
    0.5517   -0.4198    0.0000 C   0  0  0  0  0  0  0  0  0  0  0  0
    0.9666   -1.1327    0.0000 N   0  0  0  0  0  0  0  0  0  0  0  0
    0.6298   -1.8894    0.0000 C   0  0  0  0  0  0  0  0  0  0  0  0
    1.2400   -2.4410    0.0000 C   0  0  0  0  0  0  0  0  0  0  0  0
    1.9578   -2.0260    0.0000 N   0  0  0  0  0  0  0  0  0  0  0  0
    1.7869   -1.2205    0.0000 C   0  0  0  0  0  0  0  0  0  0  0  0
    2.3385   -0.6053    0.0000 C   0  0  0  0  0  0  0  0  0  0  0  0
  1  2  2  0
  2  3  1  0
  2  4  1  0
  4  5  1  0
  4 11  1  0
  4 17  1  0
  5  6  2  0
  5 10  1  0
  6  7  1  0
  7  8  2  0
  8  9  1  0
  9 10  2  0
 11 12  2  0
 11 16  1  0
 12 13  1  0
 13 14  2  0
 14 15  1  0
 15 16  2  0
 17 18  1  0
 18 19  1  0
 19 20  1  0
 19 23  1  0
 20 21  2  0
 21 22  1  0
 22 23  2  0
 23 24  1  0
M  END
$$$$
