 
     RDKit          2D

 26 29  0  0  1  0  0  0  0  0999 V2000
   16.1182  -17.0335    0.0000 C   0  0  0  0  0  0  0  0  0  0  0  0
   16.1182  -17.8585    0.0000 C   0  0  0  0  0  0  0  0  0  0  0  0
   16.8327  -18.2710    0.0000 C   0  0  0  0  0  0  0  0  0  0  0  0
   17.5472  -17.8585    0.0000 C   0  0  0  0  0  0  0  0  0  0  0  0
   17.5472  -17.0335    0.0000 C   0  0  0  0  0  0  0  0  0  0  0  0
   16.8327  -16.6210    0.0000 C   0  0  0  0  0  0  0  0  0  0  0  0
   18.2616  -18.2710    0.0000 C   0  0  0  0  0  0  0  0  0  0  0  0
   18.9761  -17.8585    0.0000 C   0  0  0  0  0  0  0  0  0  0  0  0
   18.9761  -17.0335    0.0000 C   0  0  0  0  0  0  0  0  0  0  0  0
   18.2616  -16.6210    0.0000 C   0  0  0  0  0  0  0  0  0  0  0  0
   19.6907  -16.6210    0.0000 C   0  0  0  0  0  0  0  0  0  0  0  0
   19.6907  -15.7959    0.0000 C   0  0  0  0  0  0  0  0  0  0  0  0
   18.9761  -15.3834    0.0000 C   0  0  0  0  0  0  0  0  0  0  0  0
   18.2616  -15.7959    0.0000 C   0  0  0  0  0  0  0  0  0  0  0  0
   21.1196  -16.6210    0.0000 C   0  0  0  0  0  0  0  0  0  0  0  0
   21.1196  -15.7959    0.0000 C   0  0  0  0  0  0  0  0  0  0  0  0
   20.4051  -15.3834    0.0000 C   0  0  0  0  0  0  0  0  0  0  0  0
   15.4038  -18.2710    0.0000 O   0  0  0  0  0  0  0  0  0  0  0  0
   20.4051  -14.5584    0.0000 C   0  0  0  0  0  0  0  0  0  0  0  0
   21.1220  -14.1445    0.0000 C   0  0  0  0  0  0  0  0  0  0  0  0
   19.6930  -14.1472    0.0000 O   0  0  0  0  0  0  0  0  0  0  0  0
   21.8276  -14.5520    0.0000 S   0  0  0  0  0  0  0  0  0  0  0  0
   21.1196  -15.0534    0.0000 O   0  0  0  0  0  0  0  0  0  0  0  0
   17.5472  -15.3834    0.0000 O   0  0  0  0  0  0  0  0  0  0  0  0
   17.5472  -16.2084    0.0000 C   0  0  0  0  0  0  0  0  0  0  0  0
   19.6907  -14.9530    0.0000 C   0  0  0  0  0  0  0  0  0  0  0  0
  1  2  1  0
  2  3  1  0
  3  4  2  0
  4  5  1  0
  5  6  1  0
  1  6  1  0
  4  7  1  0
  7  8  1  0
  9  8  1  6
  9 10  1  0
  5 10  1  0
  9 11  1  0
 11 12  1  0
 12 13  1  0
 13 14  1  0
 10 14  1  1
 11 15  1  1
 15 16  1  0
 16 17  1  0
 12 17  1  0
  2 18  2  0
 17 19  1  0
 19 20  1  0
 19 21  2  0
 20 22  1  0
 17 23  1  6
 14 24  1  1
  5 25  1  1
 12 26  1  1
M  END
$$$$
