
     RDKit          2D

 21 24  0  0  0  0  0  0  0  0999 V2000
    0.1310    1.6088    0.0000 O   0  0  0  0  0  0  0  0  0  0  0  0
    1.5006   -0.8028    0.0000 N   0  0  0  0  0  0  0  0  0  0  0  0
   -2.7916    0.6257    0.0000 N   0  0  0  0  0  0  0  0  0  0  0  0
   -2.7916   -0.6979    0.0000 N   0  0  0  0  0  0  0  0  0  0  0  0
    0.8256    0.3506    0.0000 C   0  0  0  0  0  0  0  0  0  0  0  0
    1.6251    0.5143    0.0000 C   0  0  0  0  0  0  0  0  0  0  0  0
    2.0446   -0.1867    0.0000 C   0  0  0  0  0  0  0  0  0  0  0  0
    0.1310    0.7831    0.0000 C   0  0  0  0  0  0  0  0  0  0  0  0
   -0.5832    0.3767    0.0000 C   0  0  0  0  0  0  0  0  0  0  0  0
    0.7470   -0.4686    0.0000 C   0  0  0  0  0  0  0  0  0  0  0  0
   -2.0184    0.3767    0.0000 C   0  0  0  0  0  0  0  0  0  0  0  0
   -2.0184   -0.4489    0.0000 C   0  0  0  0  0  0  0  0  0  0  0  0
   -1.2975    0.7831    0.0000 C   0  0  0  0  0  0  0  0  0  0  0  0
    2.0446    1.2418    0.0000 C   0  0  0  0  0  0  0  0  0  0  0  0
   -0.5832   -0.4489    0.0000 C   0  0  0  0  0  0  0  0  0  0  0  0
    2.8703   -0.1867    0.0000 C   0  0  0  0  0  0  0  0  0  0  0  0
   -1.2975   -0.8616    0.0000 C   0  0  0  0  0  0  0  0  0  0  0  0
    2.8703    1.2418    0.0000 C   0  0  0  0  0  0  0  0  0  0  0  0
    3.2766    0.5143    0.0000 C   0  0  0  0  0  0  0  0  0  0  0  0
   -3.2766   -0.0425    0.0000 C   0  0  0  0  0  0  0  0  0  0  0  0
    1.6711   -1.6088    0.0000 C   0  0  0  0  0  0  0  0  0  0  0  0
  1  8  2  0
  2  7  1  0
  2 10  1  0
  2 21  1  0
  3 11  1  0
  3 20  2  0
  4 12  1  0
  4 20  1  0
  5  6  1  0
  5  8  1  0
  5 10  2  0
  6  7  2  0
  6 14  1  0
  7 16  1  0
  9  8  1  6
  9 13  1  0
  9 15  1  0
 11 12  2  0
 11 13  1  0
 12 17  1  0
 14 18  2  0
 15 17  1  0
 16 19  2  0
 18 19  1  0
M  END
$$$$
