
     RDKit          2D

  3  2  0  0  0  0  0  0  0  0999 V2000
    0.0000   -0.3903    0.0000 C   0  0  0  0  0  0  0  0  0  0  0  0
    0.8250   -0.3903    0.0000 N   0  0  0  0  0  0  0  0  0  0  0  0
   -0.8250   -0.3903    0.0000 N   0  0  0  0  0  0  0  0  0  0  0  0
  1  2  2  0
  1  3  2  0
M  CHG  2   2  -1   3  -1
M  END
$$$$
