
     RDKit          2D

 28 30  0  0  0  0  0  0  0  0999 V2000
   -2.8528   -2.0581    0.0000 C   0  0  0  0  0  0  0  0  0  0  0  0
   -2.8528   -2.8831    0.0000 C   0  0  0  0  0  0  0  0  0  0  0  0
   -2.1384   -3.2956    0.0000 C   0  0  0  0  0  0  0  0  0  0  0  0
   -1.4238   -2.8831    0.0000 N   0  0  0  0  0  0  0  0  0  0  0  0
   -1.4238   -2.0581    0.0000 C   0  0  0  0  0  0  0  0  0  0  0  0
   -2.1384   -1.6456    0.0000 C   0  0  0  0  0  0  0  0  0  0  0  0
   -0.6984   -1.6391    0.0000 N   0  0  0  0  0  0  0  0  0  0  0  0
    0.0117   -2.0490    0.0000 C   0  0  0  0  0  0  0  0  0  0  0  0
    0.0120   -2.8828    0.0000 C   0  0  0  0  0  0  0  0  0  0  0  0
    0.7265   -3.2951    0.0000 C   0  0  0  0  0  0  0  0  0  0  0  0
    1.4409   -2.8824    0.0000 C   0  0  0  0  0  0  0  0  0  0  0  0
    1.4406   -2.0486    0.0000 C   0  0  0  0  0  0  0  0  0  0  0  0
    0.7261   -1.6363    0.0000 C   0  0  0  0  0  0  0  0  0  0  0  0
    2.1483   -1.6398    0.0000 C   0  0  0  0  0  0  0  0  0  0  0  0
    2.5608   -2.3543    0.0000 F   0  0  0  0  0  0  0  0  0  0  0  0
    1.7358   -0.9254    0.0000 F   0  0  0  0  0  0  0  0  0  0  0  0
    2.8627   -1.2273    0.0000 F   0  0  0  0  0  0  0  0  0  0  0  0
   -2.1384   -0.8207    0.0000 C   0  0  0  0  0  0  0  0  0  0  0  0
   -2.8627   -0.4023    0.0000 O   0  0  0  0  0  0  0  0  0  0  0  0
   -1.4338   -0.4138    0.0000 O   0  0  0  0  0  0  0  0  0  0  0  0
   -1.4338    0.4111    0.0000 C   0  0  0  0  0  0  0  0  0  0  0  0
   -0.7294    0.8180    0.0000 C   0  0  0  0  0  0  0  0  0  0  0  0
   -0.7293    1.6541    0.0000 N   0  0  0  0  0  0  0  0  0  0  0  0
   -0.0297    2.0582    0.0000 C   0  0  0  0  0  0  0  0  0  0  0  0
   -0.0298    2.8832    0.0000 C   0  0  0  0  0  0  0  0  0  0  0  0
   -0.7443    3.2956    0.0000 O   0  0  0  0  0  0  0  0  0  0  0  0
   -1.4439    2.8915    0.0000 C   0  0  0  0  0  0  0  0  0  0  0  0
   -1.4438    2.0665    0.0000 C   0  0  0  0  0  0  0  0  0  0  0  0
  1  2  2  0
  2  3  1  0
  3  4  2  0
  4  5  1  0
  5  6  2  0
  1  6  1  0
  5  7  1  0
  7  8  1  0
  8  9  2  0
  9 10  1  0
 10 11  2  0
 11 12  1  0
 12 13  2  0
  8 13  1  0
 12 14  1  0
 14 15  1  0
 14 16  1  0
 14 17  1  0
  6 18  1  0
 18 19  2  0
 18 20  1  0
 20 21  1  0
 21 22  1  0
 22 23  1  0
 23 24  1  0
 24 25  1  0
 25 26  1  0
 26 27  1  0
 27 28  1  0
 23 28  1  0
M  END
$$$$
