
     RDKit          2D

 46 50  0  0  1  0  0  0  0  0999 V2000
   15.4840    1.7295    0.0000 C   0  0  0  0  0  0  0  0  0  0  0  0
   16.1985    1.3170    0.0000 O   0  0  0  0  0  0  0  0  0  0  0  0
   16.9130    1.7295    0.0000 C   0  0  0  0  0  0  0  0  0  0  0  0
   17.6274    1.3170    0.0000 C   0  0  0  0  0  0  0  0  0  0  0  0
   18.3419    1.7295    0.0000 O   0  0  0  0  0  0  0  0  0  0  0  0
   19.0564    1.3170    0.0000 C   0  0  0  0  0  0  0  0  0  0  0  0
   19.7708    1.7295    0.0000 C   0  0  0  0  0  0  0  0  0  0  0  0
   20.4853    1.3170    0.0000 O   0  0  0  0  0  0  0  0  0  0  0  0
   21.1998    1.7295    0.0000 C   0  0  0  0  0  0  0  0  0  0  0  0
   21.9142    1.3170    0.0000 C   0  0  0  0  0  0  0  0  0  0  0  0
   22.6287    1.7295    0.0000 O   0  0  0  0  0  0  0  0  0  0  0  0
   23.3432    1.3170    0.0000 C   0  0  0  0  0  0  0  0  0  0  0  0
   24.0577    1.7295    0.0000 C   0  0  0  0  0  0  0  0  0  0  0  0
   24.7721    1.3170    0.0000 O   0  0  0  0  0  0  0  0  0  0  0  0
   25.4866    1.7295    0.0000 C   0  0  0  0  0  0  0  0  0  0  0  0
   26.2011    1.3170    0.0000 C   0  0  0  0  0  0  0  0  0  0  0  0
   26.9155    1.7295    0.0000 O   0  0  0  0  0  0  0  0  0  0  0  0
   27.6300    1.3170    0.0000 C   0  0  0  0  0  0  0  0  0  0  0  0
   28.3445    1.7295    0.0000 C   0  0  0  0  0  0  0  0  0  0  0  0
   29.0590    1.3170    0.0000 O   0  0  0  0  0  0  0  0  0  0  0  0
   29.7734    1.7295    0.0000 C   0  0  0  0  0  0  0  0  0  0  0  0
   30.4879    1.3170    0.0000 C   0  0  0  0  0  0  0  0  0  0  0  0
   31.2024    1.7295    0.0000 O   0  0  0  0  0  0  0  0  0  0  0  0
   31.9168    1.3170    0.0000 C   0  0  0  0  0  0  0  0  0  0  0  0
   32.6200    1.7393    0.0000 C   0  0  0  0  0  0  0  0  0  0  0  0
   33.2801    1.2795    0.0000 C   0  0  0  0  0  0  0  0  0  0  0  0
   33.2220    0.2963    0.0000 C   0  0  0  0  0  0  0  0  0  0  0  0
   33.8679   -0.4439    0.0000 C   0  0  0  0  0  0  0  0  0  0  0  0
   33.6877   -1.2424    0.0000 C   0  0  0  0  0  0  0  0  0  0  0  0
   32.8932   -1.3793    0.0000 C   0  0  0  0  0  0  0  0  0  0  0  0
   32.6381   -2.1683    0.0000 C   0  0  0  0  0  0  0  0  0  0  0  0
   31.8246   -2.3144    0.0000 C   0  0  0  0  0  0  0  0  0  0  0  0
   31.2906   -1.6696    0.0000 C   0  0  0  0  0  0  0  0  0  0  0  0
   31.5587   -0.8590    0.0000 C   0  0  0  0  0  0  0  0  0  0  0  0
   32.3699   -0.7339    0.0000 C   0  0  0  0  0  0  0  0  0  0  0  0
   32.6717    0.0934    0.0000 C   0  0  0  0  0  0  0  0  0  0  0  0
   31.9023    0.4759    0.0000 C   0  0  0  0  0  0  0  0  0  0  0  0
   31.2725   -0.0708    0.0000 O   0  0  0  0  0  0  0  0  0  0  0  0
   33.4327    0.7959    0.0000 C   0  0  0  0  0  0  0  0  0  0  0  0
   34.3303    0.7511    0.0000 C   0  0  0  0  0  0  0  0  0  0  0  0
   34.5561   -0.0341    0.0000 N   0  0  0  0  0  0  0  0  0  0  0  0
   35.3232   -0.3378    0.0000 C   0  0  0  0  0  0  0  0  0  0  0  0
   35.9697    0.1747    0.0000 C   0  0  0  0  0  0  0  0  0  0  0  0
   35.8491    0.9908    0.0000 C   0  0  0  0  0  0  0  0  0  0  0  0
   30.4799   -1.8223    0.0000 O   0  0  0  0  0  0  0  0  0  0  0  0
   34.0027    0.5630    0.0000 O   0  0  0  0  0  0  0  0  0  0  0  0
  1  2  1  0
  2  3  1  0
  3  4  1  0
  4  5  1  0
  5  6  1  0
  6  7  1  0
  7  8  1  0
  8  9  1  0
  9 10  1  0
 10 11  1  0
 11 12  1  0
 12 13  1  0
 13 14  1  0
 14 15  1  0
 15 16  1  0
 16 17  1  0
 17 18  1  0
 18 19  1  0
 19 20  1  0
 20 21  1  0
 21 22  1  0
 22 23  1  0
 24 23  1  1
 24 25  1  0
 25 26  1  0
 26 27  1  0
 27 28  1  0
 28 29  1  6
 29 30  1  0
 30 31  2  0
 31 32  1  0
 32 33  2  0
 33 34  1  0
 34 35  2  0
 30 35  1  0
 36 35  1  0
 27 36  1  0
 36 37  1  0
 24 37  1  0
 37 38  1  1
 34 38  1  0
 36 39  1  6
 39 40  1  0
 40 41  1  0
 28 41  1  0
 41 42  1  0
 42 43  1  0
 43 44  2  3
 33 45  1  0
 27 46  1  6
M  END
$$$$
