
     RDKit          2D

 10  9  0  0  0  0  0  0  0  0999 V2000
    1.0691    0.2227    0.0000 C   0  0  0  0  0  0  0  0  0  0  0  0
    0.3600   -0.1988    0.0000 C   0  0  0  0  0  0  0  0  0  0  0  0
   -0.3599    0.2106    0.0000 C   0  0  0  0  0  0  0  0  0  0  0  0
   -1.0690   -0.2106    0.0000 C   0  0  0  0  0  0  0  0  0  0  0  0
   -1.7889    0.1990    0.0000 C   0  0  0  0  0  0  0  0  0  0  0  0
    1.7889   -0.1868    0.0000 O   0  0  0  0  0  0  0  0  0  0  0  0
    0.3600   -1.0237    0.0000 O   0  0  0  0  0  0  0  0  0  0  0  0
   -0.3599    1.0356    0.0000 O   0  0  0  0  0  0  0  0  0  0  0  0
   -1.0690   -1.0356    0.0000 O   0  0  0  0  0  0  0  0  0  0  0  0
   -1.7889    1.0239    0.0000 O   0  0  0  0  0  0  0  0  0  0  0  0
  6  1  2  0
  2  1  1  0
  2  7  1  6
  3  2  1  0
  3  8  1  6
  4  3  1  0
  4  9  1  6
  5  4  1  0
 10  5  1  0
M  END
$$$$
