 
     RDKit          2D

 28 31  0  0  1  0  0  0  0  0999 V2000
   35.1321  -16.1276    0.0000 C   0  0  0  0  0  0  0  0  0  0  0  0
   34.4223  -16.5493    0.0000 O   0  0  0  0  0  0  0  0  0  0  0  0
   35.8503  -16.5284    0.0000 C   0  0  0  0  0  0  0  0  0  0  0  0
   31.5396  -19.1487    0.0000 C   0  0  0  0  0  0  0  0  0  0  0  0
   31.5396  -19.9755    0.0000 C   0  0  0  0  0  0  0  0  0  0  0  0
   32.2572  -20.3889    0.0000 C   0  0  0  0  0  0  0  0  0  0  0  0
   32.2572  -18.7354    0.0000 C   0  0  0  0  0  0  0  0  0  0  0  0
   32.9708  -19.1487    0.0000 C   0  0  0  0  0  0  0  0  0  0  0  0
   32.9672  -19.9755    0.0000 C   0  0  0  0  0  0  0  0  0  0  0  0
   33.6814  -20.3920    0.0000 C   0  0  0  0  0  0  0  0  0  0  0  0
   34.3992  -19.9817    0.0000 C   0  0  0  0  0  0  0  0  0  0  0  0
   33.6885  -18.7385    0.0000 C   0  0  0  0  0  0  0  0  0  0  0  0
   34.3992  -19.1567    0.0000 C   0  0  0  0  0  0  0  0  0  0  0  0
   34.4127  -17.5076    0.0000 C   0  0  0  0  0  0  0  0  0  0  0  0
   33.6952  -17.9140    0.0000 C   0  0  0  0  0  0  0  0  0  0  0  0
   35.1234  -17.9256    0.0000 C   0  0  0  0  0  0  0  0  0  0  0  0
   35.1136  -18.7477    0.0000 C   0  0  0  0  0  0  0  0  0  0  0  0
   36.5373  -18.7226    0.0000 C   0  0  0  0  0  0  0  0  0  0  0  0
   36.5473  -17.9429    0.0000 C   0  0  0  0  0  0  0  0  0  0  0  0
   35.8403  -17.5232    0.0000 C   0  0  0  0  0  0  0  0  0  0  0  0
   35.1179  -17.0986    0.0000 C   0  0  0  0  0  0  0  0  0  0  0  0
   32.9827  -17.4946    0.0000 O   0  0  0  0  0  0  0  0  0  0  0  0
   32.9634  -18.3219    0.0000 C   0  0  0  0  0  0  0  0  0  0  0  0
   37.2682  -17.5382    0.0000 C   0  0  0  0  0  0  0  0  0  0  0  0
   33.7240  -19.5622    0.0000 F   0  0  0  0  0  0  0  0  0  0  0  0
   33.6732  -21.2156    0.0000 F   0  0  0  0  0  0  0  0  0  0  0  0
   30.8238  -20.3893    0.0000 O   0  0  0  0  0  0  0  0  0  0  0  0
   36.5667  -16.1247    0.0000 O   0  0  0  0  0  0  0  0  0  0  0  0
  1  2  1  0
  3  1  1  0
 12 13  1  0
 13 17  1  0
 16 14  1  0
 14 15  1  0
 15 12  1  0
  4  5  1  0
  5  6  1  0
  6  9  2  0
  8  7  1  0
 16 17  1  0
 18 19  1  0
 19 20  1  0
 20 16  1  0
 17 18  1  1
 20  3  1  1
  7  4  2  0
 16 21  1  1
 15 22  1  1
  8 23  1  1
 19 24  1  6
  8  9  1  0
  9 10  1  0
 12 25  1  6
 10 11  1  0
 10 26  1  6
 13 11  1  6
  5 27  2  0
 12  8  1  0
  3 28  2  0
M  END
$$$$
