
     RDKit          2D

 12 12  0  0  0  0  0  0  0  0999 V2000
   17.1758   -3.7812    0.0000 O   0  0  0  0  0  0  0  0  0  0  0  0
   15.7468   -4.6062    0.0000 O   0  0  0  0  0  0  0  0  0  0  0  0
   17.8902   -5.8437    0.0000 C   0  0  0  0  0  0  0  0  0  0  0  0
   18.6047   -6.2563    0.0000 C   0  0  0  0  0  0  0  0  0  0  0  0
   17.8902   -5.0187    0.0000 C   0  0  0  0  0  0  0  0  0  0  0  0
   17.1758   -4.6062    0.0000 C   0  0  0  0  0  0  0  0  0  0  0  0
   17.1758   -6.2563    0.0000 C   0  0  0  0  0  0  0  0  0  0  0  0
   16.4613   -5.0187    0.0000 C   0  0  0  0  0  0  0  0  0  0  0  0
   16.4613   -5.8437    0.0000 C   0  0  0  0  0  0  0  0  0  0  0  0
   18.6047   -7.0813    0.0000 C   0  0  0  0  0  0  0  0  0  0  0  0
   17.8902   -3.3687    0.0000 C   0  0  0  0  0  0  0  0  0  0  0  0
   19.3192   -7.4938    0.0000 C   0  0  0  0  0  0  0  0  0  0  0  0
  1  6  1  0
  1 11  1  0
  2  8  1  0
  3  4  1  0
  3  5  2  0
  3  7  1  0
  4 10  1  0
  5  6  1  0
  6  8  2  0
  7  9  2  0
  8  9  1  0
 10 12  2  3
M  END
$$$$
