
     RDKit          2D

  3  2  0  0  0  0  0  0  0  0999 V2000
   -1.1895    0.4575    0.0000 O   0  0  0  0  0  0  0  0  0  0  0  0
    0.4604    0.4575    0.0000 O   0  0  0  0  0  0  0  0  0  0  0  0
   -0.3645    0.4575    0.0000 Ti  0  0  0  0  0  4  0  0  0  0  0  0
  1  3  2  0
  3  2  2  0
M  END
$$$$
