
     RDKit          2D

  5  4  0  0  0  0  0  0  0  0999 V2000
   -0.9071    0.6187    0.0000 O   0  0  0  0  0  0  0  0  0  0  0  0
   -0.9071    1.4438    0.0000 P   0  0  0  0  0  0  0  0  0  0  0  0
   -0.9071    2.2688    0.0000 O   0  0  0  0  0  0  0  0  0  0  0  0
   -1.7321    1.4438    0.0000 O   0  0  0  0  0  0  0  0  0  0  0  0
   -0.0829    1.4438    0.0000 O   0  0  0  0  0  0  0  0  0  0  0  0
  1  2  2  0
  2  3  1  0
  2  4  1  0
  2  5  1  0
M  CHG  1   3  -1
M  END
$$$$
