
     RDKit          2D

115120  0  0  0  0  0  0  0  0999 V2000
   -0.2898   -4.5373    0.0000 O   0  0  0  0  0  0  0  0  0  0  0  0
    1.1392   -3.7124    0.0000 N   0  0  0  0  0  0  0  0  0  0  0  0
   -1.0041   -3.2998    0.0000 N   0  0  0  0  0  0  0  0  0  0  0  0
    0.4248   -3.2998    0.0000 C   0  0  0  0  0  0  0  0  0  0  0  0
   -0.2896   -2.0623    0.0000 C   0  0  0  0  0  0  0  0  0  0  0  0
   -0.2898   -3.7123    0.0000 C   0  0  0  0  0  0  0  0  0  0  0  0
    0.4248   -2.4748    0.0000 C   0  0  0  0  0  0  0  0  0  0  0  0
    1.8537   -2.4749    0.0000 O   0  0  0  0  0  0  0  0  0  0  0  0
    3.2827   -3.2999    0.0000 N   0  0  0  0  0  0  0  0  0  0  0  0
    2.5682   -3.7124    0.0000 C   0  0  0  0  0  0  0  0  0  0  0  0
    1.8537   -3.2705    0.0000 C   0  0  0  0  0  0  0  0  0  0  0  0
    2.5682   -4.5374    0.0000 C   0  0  0  0  0  0  0  0  0  0  0  0
    3.9970   -4.5374    0.0000 O   0  0  0  0  0  0  0  0  0  0  0  0
    4.7117   -3.3000    0.0000 C   0  0  0  0  0  0  0  0  0  0  0  0
    5.4258   -4.5377    0.0000 C   0  0  0  0  0  0  0  0  0  0  0  0
    3.9970   -3.7124    0.0000 C   0  0  0  0  0  0  0  0  0  0  0  0
    5.4261   -3.7126    0.0000 C   0  0  0  0  0  0  0  0  0  0  0  0
    4.7119   -2.4750    0.0000 N   0  0  0  0  0  0  0  0  0  0  0  0
    3.2829   -2.4748    0.0000 O   0  0  0  0  0  0  0  0  0  0  0  0
    4.7121   -0.8250    0.0000 N   0  0  0  0  0  0  0  0  0  0  0  0
    3.9976   -1.2374    0.0000 C   0  0  0  0  0  0  0  0  0  0  0  0
    2.5686   -1.2373    0.0000 C   0  0  0  0  0  0  0  0  0  0  0  0
    3.9975   -2.0624    0.0000 C   0  0  0  0  0  0  0  0  0  0  0  0
    3.2831   -0.8248    0.0000 C   0  0  0  0  0  0  0  0  0  0  0  0
    3.9977    0.4125    0.0000 O   0  0  0  0  0  0  0  0  0  0  0  0
    5.4267    0.4124    0.0000 C   0  0  0  0  0  0  0  0  0  0  0  0
    4.7121    0.0000    0.0000 C   0  0  0  0  0  0  0  0  0  0  0  0
    6.1411   -0.0001    0.0000 C   0  0  0  0  0  0  0  0  0  0  0  0
    5.4267    1.2374    0.0000 N   0  0  0  0  0  0  0  0  0  0  0  0
    3.9978    1.2374    0.0000 O   0  0  0  0  0  0  0  0  0  0  0  0
    3.9978    2.8875    0.0000 N   0  0  0  0  0  0  0  0  0  0  0  0
    4.7122    2.4750    0.0000 C   0  0  0  0  0  0  0  0  0  0  0  0
    6.1412    2.4749    0.0000 C   0  0  0  0  0  0  0  0  0  0  0  0
    4.7122    1.6499    0.0000 C   0  0  0  0  0  0  0  0  0  0  0  0
    5.4267    2.8874    0.0000 C   0  0  0  0  0  0  0  0  0  0  0  0
    6.1412    1.6500    0.0000 C   0  0  0  0  0  0  0  0  0  0  0  0
    6.8558    2.8875    0.0000 C   0  0  0  0  0  0  0  0  0  0  0  0
    7.5702    2.4750    0.0000 C   0  0  0  0  0  0  0  0  0  0  0  0
    7.5702    1.6500    0.0000 C   0  0  0  0  0  0  0  0  0  0  0  0
    6.8556    1.2374    0.0000 C   0  0  0  0  0  0  0  0  0  0  0  0
    3.2834    1.6500    0.0000 O   0  0  0  0  0  0  0  0  0  0  0  0
    1.8543    2.4750    0.0000 N   0  0  0  0  0  0  0  0  0  0  0  0
    2.5688    2.8875    0.0000 C   0  0  0  0  0  0  0  0  0  0  0  0
    3.2834    2.4750    0.0000 C   0  0  0  0  0  0  0  0  0  0  0  0
    1.1399    2.8875    0.0000 C   0  0  0  0  0  0  0  0  0  0  0  0
    0.4253    2.4748    0.0000 C   0  0  0  0  0  0  0  0  0  0  0  0
   -0.2890    2.8875    0.0000 N   0  0  0  0  0  0  0  0  0  0  0  0
    0.3959    1.6794    0.0000 C   0  0  0  0  0  0  0  0  0  0  0  0
    1.1399    3.7125    0.0000 O   0  0  0  0  0  0  0  0  0  0  0  0
   -1.7180    2.8875    0.0000 C   0  0  0  0  0  0  0  0  0  0  0  0
   -1.0034    2.4750    0.0000 C   0  0  0  0  0  0  0  0  0  0  0  0
   -1.7180    3.7125    0.0000 C   0  0  0  0  0  0  0  0  0  0  0  0
   -2.4324    2.4750    0.0000 N   0  0  0  0  0  0  0  0  0  0  0  0
   -1.0036    4.1250    0.0000 C   0  0  0  0  0  0  0  0  0  0  0  0
   -1.0034    1.6500    0.0000 O   0  0  0  0  0  0  0  0  0  0  0  0
   -2.4324    1.6500    0.0000 C   0  0  0  0  0  0  0  0  0  0  0  0
   -3.1469    1.2375    0.0000 C   0  0  0  0  0  0  0  0  0  0  0  0
   -3.8614    1.6500    0.0000 N   0  0  0  0  0  0  0  0  0  0  0  0
   -4.5758    0.4125    0.0000 O   0  0  0  0  0  0  0  0  0  0  0  0
   -5.2904    1.6500    0.0000 C   0  0  0  0  0  0  0  0  0  0  0  0
   -4.5758    1.2081    0.0000 C   0  0  0  0  0  0  0  0  0  0  0  0
   -6.0048    1.2375    0.0000 N   0  0  0  0  0  0  0  0  0  0  0  0
   -6.7193    2.4750    0.0000 O   0  0  0  0  0  0  0  0  0  0  0  0
   -8.1483    1.6500    0.0000 N   0  0  0  0  0  0  0  0  0  0  0  0
   -7.4338    1.2375    0.0000 C   0  0  0  0  0  0  0  0  0  0  0  0
   -6.7193    1.6794    0.0000 C   0  0  0  0  0  0  0  0  0  0  0  0
   -7.4338    0.4125    0.0000 C   0  0  0  0  0  0  0  0  0  0  0  0
   -1.0036    4.9500    0.0000 C   0  0  0  0  0  0  0  0  0  0  0  0
   -0.2890    5.3624    0.0000 C   0  0  0  0  0  0  0  0  0  0  0  0
   -0.2890    6.1874    0.0000 N   0  0  0  0  0  0  0  0  0  0  0  0
    1.0945    1.2406    0.0000 C   0  0  0  0  0  0  0  0  0  0  0  0
    1.8238    1.6263    0.0000 N   0  0  0  0  0  0  0  0  0  0  0  0
    1.0639    0.4161    0.0000 O   0  0  0  0  0  0  0  0  0  0  0  0
    2.5687    3.7125    0.0000 C   0  0  0  0  0  0  0  0  0  0  0  0
    3.2832    4.1250    0.0000 C   0  0  0  0  0  0  0  0  0  0  0  0
    3.2831    4.9500    0.0000 C   0  0  0  0  0  0  0  0  0  0  0  0
    3.9977    3.7125    0.0000 C   0  0  0  0  0  0  0  0  0  0  0  0
    3.9976    5.3625    0.0000 C   0  0  0  0  0  0  0  0  0  0  0  0
    4.7121    4.1250    0.0000 C   0  0  0  0  0  0  0  0  0  0  0  0
    4.7121    4.9500    0.0000 C   0  0  0  0  0  0  0  0  0  0  0  0
    6.1411   -0.8250    0.0000 C   0  0  0  0  0  0  0  0  0  0  0  0
    6.8084   -1.3100    0.0000 C   0  0  0  0  0  0  0  0  0  0  0  0
    5.4735   -1.3099    0.0000 C   0  0  0  0  0  0  0  0  0  0  0  0
    6.5534   -2.0946    0.0000 C   0  0  0  0  0  0  0  0  0  0  0  0
    5.7284   -2.0946    0.0000 N   0  0  0  0  0  0  0  0  0  0  0  0
    7.1076   -2.7057    0.0000 C   0  0  0  0  0  0  0  0  0  0  0  0
    7.9051   -2.5394    0.0000 C   0  0  0  0  0  0  0  0  0  0  0  0
    8.1483   -1.7620    0.0000 C   0  0  0  0  0  0  0  0  0  0  0  0
    7.5941   -1.1508    0.0000 C   0  0  0  0  0  0  0  0  0  0  0  0
    1.8542   -0.8247    0.0000 C   0  0  0  0  0  0  0  0  0  0  0  0
    1.1397   -1.2371    0.0000 C   0  0  0  0  0  0  0  0  0  0  0  0
    0.4252   -0.8246    0.0000 N   0  0  0  0  0  0  0  0  0  0  0  0
    6.1406   -3.3003    0.0000 O   0  0  0  0  0  0  0  0  0  0  0  0
    1.8537   -4.9499    0.0000 C   0  0  0  0  0  0  0  0  0  0  0  0
    1.1392   -4.5374    0.0000 C   0  0  0  0  0  0  0  0  0  0  0  0
    1.8536   -5.7749    0.0000 C   0  0  0  0  0  0  0  0  0  0  0  0
    0.4247   -4.9499    0.0000 C   0  0  0  0  0  0  0  0  0  0  0  0
    1.1391   -6.1874    0.0000 C   0  0  0  0  0  0  0  0  0  0  0  0
    0.4247   -5.7749    0.0000 C   0  0  0  0  0  0  0  0  0  0  0  0
    1.1393   -2.0624    0.0000 O   0  0  0  0  0  0  0  0  0  0  0  0
   -3.8622   -3.2997    0.0000 O   0  0  0  0  0  0  0  0  0  0  0  0
   -2.4331   -2.4747    0.0000 N   0  0  0  0  0  0  0  0  0  0  0  0
   -4.5765   -2.0622    0.0000 O   0  0  0  0  0  0  0  0  0  0  0  0
   -3.1181   -2.0033    0.0000 C   0  0  0  0  0  0  0  0  0  0  0  0
   -3.8622   -2.4747    0.0000 C   0  0  0  0  0  0  0  0  0  0  0  0
   -1.7186   -3.7123    0.0000 C   0  0  0  0  0  0  0  0  0  0  0  0
   -2.4331   -3.2703    0.0000 C   0  0  0  0  0  0  0  0  0  0  0  0
   -1.7186   -4.5373    0.0000 C   0  0  0  0  0  0  0  0  0  0  0  0
   -2.4332   -4.9497    0.0000 O   0  0  0  0  0  0  0  0  0  0  0  0
   -1.7180    1.2375    0.0000 O   0  0  0  0  0  0  0  0  0  0  0  0
   -3.1538   -3.6720    0.0000 O   0  0  0  0  0  0  0  0  0  0  0  0
   -3.1469    0.4125    0.0000 C   0  0  0  0  0  0  0  0  0  0  0  0
   -3.1181   -1.1783    0.0000 C   0  0  0  0  0  0  0  0  0  0  0  0
   -2.4036   -0.7658    0.0000 S   0  0  0  0  0  0  0  0  0  0  0  0
   -2.4325    0.0000    0.0000 S   0  0  0  0  0  0  0  0  0  0  0  0
  1  6  2  0
  4  2  1  6
  6  3  1  0
  6  4  1  0
  7  4  1  0
  7  5  1  1
  8 11  2  0
 10  9  1  0
 11  2  1  0
 11 10  1  0
 10 12  1  1
 13 16  2  0
 14 18  1  1
 16  9  1  0
 16 14  1  0
 17 14  1  0
 17 15  1  6
 19 23  2  0
 21 20  1  0
 23 18  1  0
 23 21  1  0
 21 24  1  6
 24 22  1  0
 27 20  1  0
 25 27  2  0
 26 29  1  0
 27 26  1  0
 26 28  1  1
 30 34  2  0
 32 31  1  0
 34 29  1  0
 34 32  1  0
 32 35  1  1
 35 33  1  0
 36 33  2  0
 33 37  1  0
 37 38  2  0
 38 39  1  0
 39 40  2  0
 36 40  1  0
 41 44  2  0
 43 42  1  0
 44 31  1  0
 44 43  1  0
 45 46  1  0
 45 42  1  0
 46 47  1  0
 46 48  1  6
 49 45  2  0
 50 51  1  0
 50 52  1  1
 50 53  1  0
 51 47  1  0
 52 54  1  0
 55 51  2  0
 56 57  1  0
 57 58  1  6
 53 56  1  0
 59 61  2  0
 60 62  1  0
 61 58  1  0
 61 60  1  0
 63 66  2  0
 65 64  1  0
 66 62  1  0
 66 65  1  0
 65 67  1  6
 54 68  1  0
 68 69  1  0
 69 70  1  0
 72 71  1  0
 73 71  2  0
 48 71  1  0
 43 74  1  1
 76 75  2  0
 77 75  1  0
 78 76  1  0
 79 77  2  0
 80 78  2  0
 80 79  1  0
 74 75  1  0
 82 81  1  0
 83 81  2  0
 85 83  1  0
 85 84  1  0
 28 81  1  0
 84 86  1  0
 87 86  2  0
 82 84  2  0
 88 87  1  0
 89 82  1  0
 89 88  2  0
 22 90  1  0
 90 91  1  0
 91 92  1  0
 17 93  1  0
 95 94  2  0
 96 94  1  0
 97 95  1  0
 98 96  2  0
 99 97  2  0
 99 98  1  0
 12 94  1  0
  7100  1  0
101105  2  0
104102  1  0
105103  1  0
104105  1  6
102107  1  0
106  3  1  0
107106  1  0
106108  1  1
108109  1  0
 56110  2  0
107111  2  0
 57112  1  0
104113  1  0
113114  1  0
112115  1  0
114115  1  0
M  END
$$$$
