
     RDKit          2D

 11 12  0  0  0  0  0  0  0  0999 V2000
    1.5187   -0.4331    0.0000 O   0  0  0  0  0  0  0  0  0  0  0  0
    0.0898   -1.2580    0.0000 N   0  0  0  0  0  0  0  0  0  0  0  0
    0.8043   -1.6705    0.0000 C   0  0  0  0  0  0  0  0  0  0  0  0
    0.8043   -2.4955    0.0000 C   0  0  0  0  0  0  0  0  0  0  0  0
    1.5187   -1.2580    0.0000 C   0  0  0  0  0  0  0  0  0  0  0  0
    1.5187   -2.9080    0.0000 C   0  0  0  0  0  0  0  0  0  0  0  0
    0.0898   -2.9080    0.0000 C   0  0  0  0  0  0  0  0  0  0  0  0
    2.2332   -1.6705    0.0000 C   0  0  0  0  0  0  0  0  0  0  0  0
    2.2332   -2.4955    0.0000 C   0  0  0  0  0  0  0  0  0  0  0  0
   -0.6245   -1.6705    0.0000 C   0  0  0  0  0  0  0  0  0  0  0  0
   -0.6245   -2.4955    0.0000 C   0  0  0  0  0  0  0  0  0  0  0  0
  1  5  1  0
  2  3  2  0
  2 10  1  0
  3  4  1  0
  3  5  1  0
  4  6  1  0
  4  7  2  0
  5  8  2  0
  6  9  2  0
  7 11  1  0
  8  9  1  0
 10 11  2  0
M  CHG  1   1  -1
M  END
$$$$
