
     RDKit          2D

 28 29  0  0  0  0  0  0  0  0999 V2000
    0.7135    0.7517    0.0000 C   0  0  0  0  0  0  0  0  0  0  0  0
    0.7061   -0.7445    0.0000 C   0  0  0  0  0  0  0  0  0  0  0  0
   -0.0034    1.1600    0.0000 C   0  0  0  0  0  0  0  0  0  0  0  0
    1.4304    1.1600    0.0000 C   0  0  0  0  0  0  0  0  0  0  0  0
   -0.0143   -1.1600    0.0000 C   0  0  0  0  0  0  0  0  0  0  0  0
    1.4194   -1.1600    0.0000 C   0  0  0  0  0  0  0  0  0  0  0  0
   -0.0034    1.9873    0.0000 C   0  0  0  0  0  0  0  0  0  0  0  0
   -0.7167    0.7517    0.0000 C   0  0  0  0  0  0  0  0  0  0  0  0
    1.4304    1.9873    0.0000 C   0  0  0  0  0  0  0  0  0  0  0  0
    2.1438    0.7517    0.0000 C   0  0  0  0  0  0  0  0  0  0  0  0
   -0.0143   -1.9799    0.0000 C   0  0  0  0  0  0  0  0  0  0  0  0
   -0.7203   -0.7445    0.0000 N   0  0  0  0  0  0  0  0  0  0  0  0
    1.4194   -1.9799    0.0000 C   0  0  0  0  0  0  0  0  0  0  0  0
    0.7135    2.3991    0.0000 N   0  0  0  0  0  0  0  0  0  0  0  0
   -0.7167    2.3991    0.0000 C   0  0  0  0  0  0  0  0  0  0  0  0
   -1.4299    1.1600    0.0000 O   0  0  0  0  0  0  0  0  0  0  0  0
   -0.7130   -0.0129    0.0000 O   0  0  0  0  0  0  0  0  0  0  0  0
    2.1438    2.3991    0.0000 C   0  0  0  0  0  0  0  0  0  0  0  0
    2.8533    1.1600    0.0000 O   0  0  0  0  0  0  0  0  0  0  0  0
    2.1438   -0.0753    0.0000 O   0  0  0  0  0  0  0  0  0  0  0  0
    0.7061   -2.3991    0.0000 C   0  0  0  0  0  0  0  0  0  0  0  0
    0.2207   -0.1231    0.0000 O   0  0  0  0  0  0  0  0  0  0  0  0
   -1.8859   -1.5203    0.0000 O   0  0  0  0  0  0  0  0  0  0  0  0
   -2.1433    0.7517    0.0000 C   0  0  0  0  0  0  0  0  0  0  0  0
    3.5667    0.7517    0.0000 C   0  0  0  0  0  0  0  0  0  0  0  0
   -2.8534    1.1654    0.0000 C   0  0  0  0  0  0  0  0  0  0  0  0
   -3.5667    0.7572    0.0000 C   0  0  0  0  0  0  0  0  0  0  0  0
   -2.8502    1.9873    0.0000 O   0  0  0  0  0  0  0  0  0  0  0  0
  1  4  1  0
  2  5  2  0
  2  6  1  0
  3  7  2  0
  3  8  1  0
  4  9  2  0
  4 10  1  0
  5 11  1  0
  5 12  1  0
  6 13  2  0
  7 14  1  0
  7 15  1  0
  8 16  1  0
  8 17  2  0
  9 18  1  0
 10 19  1  0
 10 20  2  0
 11 21  2  0
 12 22  2  0
 12 23  1  0
 16 24  1  0
 19 25  1  0
  9 14  1  0
 13 21  1  0
 24 26  1  0
  1  2  1  0
 26 27  1  0
  1  3  1  0
 26 28  2  0
M  CHG  2  12   1  23  -1
M  END
$$$$
