 
     RDKit          2D

 37 40  0  0  1  0  0  0  0  0999 V2000
   20.0293  -25.3368    0.0000 C   0  0  0  0  0  0  0  0  0  0  0  0
   20.0293  -26.1618    0.0000 C   0  0  0  0  0  0  0  0  0  0  0  0
   20.7718  -26.5743    0.0000 C   0  0  0  0  0  0  0  0  0  0  0  0
   21.4731  -26.1618    0.0000 C   0  0  0  0  0  0  0  0  0  0  0  0
   21.4731  -25.3368    0.0000 C   0  0  0  0  0  0  0  0  0  0  0  0
   20.7718  -24.9243    0.0000 C   0  0  0  0  0  0  0  0  0  0  0  0
   20.7718  -24.0993    0.0000 C   0  0  0  0  0  0  0  0  0  0  0  0
   20.0293  -23.6868    0.0000 O   0  0  0  0  0  0  0  0  0  0  0  0
   21.4731  -23.6868    0.0000 N   0  0  0  0  0  0  0  0  0  0  0  0
   22.1743  -24.0993    0.0000 C   0  0  0  0  0  0  0  0  0  0  0  0
   21.4731  -22.8618    0.0000 C   0  0  0  0  0  0  0  0  0  0  0  0
   20.7718  -27.4406    0.0000 N   0  0  0  0  0  0  0  0  0  0  0  0
   21.4731  -27.8118    0.0000 C   0  0  0  0  0  0  0  0  0  0  0  0
   22.1743  -27.4406    0.0000 C   0  0  0  0  0  0  0  0  0  0  0  0
   21.4731  -28.6781    0.0000 O   0  0  0  0  0  0  0  0  0  0  0  0
   22.8756  -27.8118    0.0000 N   0  0  0  0  0  0  0  0  0  0  0  0
   22.1743  -26.5743    0.0000 O   0  0  0  0  0  0  0  0  0  0  0  0
   23.5768  -27.4406    0.0000 C   0  0  0  0  0  0  0  0  0  0  0  0
   24.2781  -27.8118    0.0000 N   0  0  0  0  0  0  0  0  0  0  0  0
   24.9793  -27.3993    0.0000 C   0  0  0  0  0  0  0  0  0  0  0  0
   24.9793  -26.5743    0.0000 C   0  0  0  0  0  0  0  0  0  0  0  0
   24.2781  -26.1618    0.0000 C   0  0  0  0  0  0  0  0  0  0  0  0
   23.5768  -26.6156    0.0000 C   0  0  0  0  0  0  0  0  0  0  0  0
   25.7218  -26.1618    0.0000 Cl  0  0  0  0  0  0  0  0  0  0  0  0
   19.3281  -26.5743    0.0000 N   0  0  0  0  0  0  0  0  0  0  0  0
   18.6268  -26.2031    0.0000 C   0  0  0  0  0  0  0  0  0  0  0  0
   17.9256  -26.5743    0.0000 C   0  0  0  0  0  0  0  0  0  0  0  0
   18.6268  -25.3368    0.0000 O   0  0  0  0  0  0  0  0  0  0  0  0
   17.1831  -26.2443    0.0000 N   0  0  0  0  0  0  0  0  0  0  0  0
   16.6056  -26.8631    0.0000 C   0  0  0  0  0  0  0  0  0  0  0  0
   17.0181  -27.5643    0.0000 C   0  0  0  0  0  0  0  0  0  0  0  0
   17.8431  -27.3993    0.0000 S   0  0  0  0  0  0  0  0  0  0  0  0
   15.7806  -26.8631    0.0000 C   0  0  0  0  0  0  0  0  0  0  0  0
   15.3681  -27.5643    0.0000 C   0  0  0  0  0  0  0  0  0  0  0  0
   15.7806  -28.2656    0.0000 N   0  0  0  0  0  0  0  0  0  0  0  0
   16.6056  -28.2656    0.0000 C   0  0  0  0  0  0  0  0  0  0  0  0
   15.3681  -29.0081    0.0000 C   0  0  0  0  0  0  0  0  0  0  0  0
  1  2  1  0
  2  3  1  0
  3  4  1  0
  4  5  1  0
  5  6  1  0
  1  6  1  0
  6  7  1  1
  7  8  2  0
  7  9  1  0
  9 10  1  0
  9 11  1  0
  3 12  1  6
 12 13  1  0
 13 14  1  0
 13 15  2  0
 14 16  1  0
 14 17  2  0
 16 18  1  0
 18 19  2  0
 19 20  1  0
 20 21  2  0
 21 22  1  0
 22 23  2  0
 18 23  1  0
 21 24  1  0
  2 25  1  6
 25 26  1  0
 26 27  1  0
 26 28  2  0
 27 29  2  0
 29 30  1  0
 30 31  2  0
 31 32  1  0
 27 32  1  0
 30 33  1  0
 33 34  1  0
 34 35  1  0
 35 36  1  0
 31 36  1  0
 35 37  1  0
M  END
$$$$
