
     RDKit          2D

 21 21  0  0  0  0  0  0  0  0999 V2000
    0.7440    2.2661    0.0000 Hg  0  0  0  0  0  2  0  0  0  0  0  0
   -0.0030   -1.4264    0.0000 O   0  0  0  0  0  0  0  0  0  0  0  0
   -2.1334   -0.1913    0.0000 O   0  0  0  0  0  0  0  0  0  0  0  0
    0.7317    0.6174    0.0000 O   0  0  0  0  0  0  0  0  0  0  0  0
    1.4171   -0.5927    0.0000 O   0  0  0  0  0  0  0  0  0  0  0  0
    2.1396   -1.8216    0.0000 O   0  0  0  0  0  0  0  0  0  0  0  0
    0.7502    3.0874    0.0000 O   0  0  0  0  0  0  0  0  0  0  0  0
   -0.7069   -0.2038    0.0000 N   0  0  0  0  0  0  0  0  0  0  0  0
   -1.4294   -1.4325    0.0000 C   0  0  0  0  0  0  0  0  0  0  0  0
   -0.7132   -1.8401    0.0000 C   0  0  0  0  0  0  0  0  0  0  0  0
   -1.4232   -0.6112    0.0000 C   0  0  0  0  0  0  0  0  0  0  0  0
   -2.1396   -1.8524    0.0000 C   0  0  0  0  0  0  0  0  0  0  0  0
   -0.7007   -2.6675    0.0000 C   0  0  0  0  0  0  0  0  0  0  0  0
   -2.1396   -2.6798    0.0000 C   0  0  0  0  0  0  0  0  0  0  0  0
   -1.4171   -3.0874    0.0000 C   0  0  0  0  0  0  0  0  0  0  0  0
   -0.7007    0.6236    0.0000 C   0  0  0  0  0  0  0  0  0  0  0  0
    0.0215    1.0373    0.0000 C   0  0  0  0  0  0  0  0  0  0  0  0
    0.7132   -1.8338    0.0000 C   0  0  0  0  0  0  0  0  0  0  0  0
    1.4233   -1.4140    0.0000 C   0  0  0  0  0  0  0  0  0  0  0  0
   -0.0154    1.8585    0.0000 C   0  0  0  0  0  0  0  0  0  0  0  0
    1.4480    1.0188    0.0000 C   0  0  0  0  0  0  0  0  0  0  0  0
  1  7  1  0
  1 20  1  0
  2 10  1  0
  2 18  1  0
  3 11  2  0
  4 17  1  0
  4 21  1  0
  5 19  2  0
  6 19  1  0
  8 11  1  0
  8 16  1  0
  9 10  2  0
  9 11  1  0
  9 12  1  0
 10 13  1  0
 12 14  2  0
 13 15  2  0
 14 15  1  0
 16 17  1  0
 17 20  1  0
 18 19  1  0
M  END
$$$$
