
     RDKit          2D

 32 32  0  0  0  0  0  0  0  0999 V2000
   -0.0026    0.8255    0.0000 C   0  0  0  0  0  0  0  0  0  0  0  0
   -0.0026    0.0005    0.0000 C   0  0  0  0  0  0  0  0  0  0  0  0
    0.7118   -0.4119    0.0000 C   0  0  0  0  0  0  0  0  0  0  0  0
    1.4263    0.0005    0.0000 C   0  0  0  0  0  0  0  0  0  0  0  0
    1.4263    0.8255    0.0000 C   0  0  0  0  0  0  0  0  0  0  0  0
    0.7118    1.2381    0.0000 C   0  0  0  0  0  0  0  0  0  0  0  0
    2.1416    1.2385    0.0000 I   0  0  0  0  0  0  0  0  0  0  0  0
   -0.7171    1.2381    0.0000 I   0  0  0  0  0  0  0  0  0  0  0  0
    0.7118   -1.2369    0.0000 I   0  0  0  0  0  0  0  0  0  0  0  0
    2.1418   -0.4119    0.0000 N   0  0  0  0  0  0  0  0  0  0  0  0
   -0.7171   -0.4119    0.0000 C   0  0  0  0  0  0  0  0  0  0  0  0
   -1.4316    0.0005    0.0000 N   0  0  0  0  0  0  0  0  0  0  0  0
   -2.1460   -0.4119    0.0000 C   0  0  0  0  0  0  0  0  0  0  0  0
   -2.8606    0.0005    0.0000 C   0  0  0  0  0  0  0  0  0  0  0  0
   -3.5750   -0.4119    0.0000 C   0  0  0  0  0  0  0  0  0  0  0  0
   -4.2895    0.0005    0.0000 O   0  0  0  0  0  0  0  0  0  0  0  0
   -0.7171   -1.2376    0.0000 O   0  0  0  0  0  0  0  0  0  0  0  0
   -2.8606    0.8251    0.0000 O   0  0  0  0  0  0  0  0  0  0  0  0
    0.7118    2.0626    0.0000 C   0  0  0  0  0  0  0  0  0  0  0  0
    1.4276    2.4759    0.0000 N   0  0  0  0  0  0  0  0  0  0  0  0
   -0.0015    2.4745    0.0000 O   0  0  0  0  0  0  0  0  0  0  0  0
    2.1430    2.0626    0.0000 C   0  0  0  0  0  0  0  0  0  0  0  0
    2.8576    2.4752    0.0000 C   0  0  0  0  0  0  0  0  0  0  0  0
    3.5721    2.0626    0.0000 O   0  0  0  0  0  0  0  0  0  0  0  0
    2.8576    0.0020    0.0000 C   0  0  0  0  0  0  0  0  0  0  0  0
    3.5750   -0.4115    0.0000 C   0  0  0  0  0  0  0  0  0  0  0  0
    2.8571    0.8246    0.0000 O   0  0  0  0  0  0  0  0  0  0  0  0
    2.1423   -1.2382    0.0000 C   0  0  0  0  0  0  0  0  0  0  0  0
    2.8588   -1.6511    0.0000 C   0  0  0  0  0  0  0  0  0  0  0  0
    3.5739   -1.2377    0.0000 C   0  0  0  0  0  0  0  0  0  0  0  0
    2.8593   -2.4759    0.0000 O   0  0  0  0  0  0  0  0  0  0  0  0
    4.2895   -1.6502    0.0000 O   0  0  0  0  0  0  0  0  0  0  0  0
  1  2  2  0
  2  3  1  0
  3  4  2  0
  4  5  1  0
  5  6  2  0
  1  6  1  0
  5  7  1  0
  1  8  1  0
  3  9  1  0
  4 10  1  0
  2 11  1  0
 11 12  1  0
 12 13  1  0
 13 14  1  0
 14 15  1  0
 15 16  1  0
 11 17  2  0
 14 18  1  0
  6 19  1  0
 19 20  1  0
 19 21  2  0
 20 22  1  0
 22 23  1  0
 23 24  1  0
 10 25  1  0
 25 26  1  0
 25 27  2  0
 10 28  1  0
 28 29  1  0
 29 30  1  0
 29 31  1  0
 30 32  1  0
M  END
$$$$
