
     RDKit          2D

 38 41  0  0  0  0  0  0  0  0999 V2000
   18.8497   -5.3426    0.0000 N   0  0  0  0  0  0  0  0  0  0  0  0
   18.8497   -6.1676    0.0000 C   0  0  0  0  0  0  0  0  0  0  0  0
   18.1352   -4.9301    0.0000 C   0  0  0  0  0  0  0  0  0  0  0  0
   18.1352   -6.5802    0.0000 N   0  0  0  0  0  0  0  0  0  0  0  0
   17.4207   -5.3426    0.0000 C   0  0  0  0  0  0  0  0  0  0  0  0
   17.4207   -6.1676    0.0000 C   0  0  0  0  0  0  0  0  0  0  0  0
   19.5678   -6.5726    0.0000 N   0  0  0  0  0  0  0  0  0  0  0  0
   16.7062   -6.5802    0.0000 N   0  0  0  0  0  0  0  0  0  0  0  0
   15.9918   -6.1676    0.0000 C   0  0  0  0  0  0  0  0  0  0  0  0
   15.2773   -6.5802    0.0000 C   0  0  0  0  0  0  0  0  0  0  0  0
   15.9918   -5.3426    0.0000 C   0  0  0  0  0  0  0  0  0  0  0  0
   14.5628   -6.1675    0.0000 C   0  0  0  0  0  0  0  0  0  0  0  0
   15.2773   -4.9301    0.0000 C   0  0  0  0  0  0  0  0  0  0  0  0
   14.5629   -5.3426    0.0000 C   0  0  0  0  0  0  0  0  0  0  0  0
   16.7062   -4.9301    0.0000 Cl  0  0  0  0  0  0  0  0  0  0  0  0
   19.5688   -7.3975    0.0000 C   0  0  0  0  0  0  0  0  0  0  0  0
   18.8549   -7.8108    0.0000 C   0  0  0  0  0  0  0  0  0  0  0  0
   20.2838   -7.8093    0.0000 C   0  0  0  0  0  0  0  0  0  0  0  0
   18.8557   -8.6359    0.0000 C   0  0  0  0  0  0  0  0  0  0  0  0
   20.2847   -8.6342    0.0000 C   0  0  0  0  0  0  0  0  0  0  0  0
   19.5707   -9.0477    0.0000 C   0  0  0  0  0  0  0  0  0  0  0  0
   19.5715   -9.8725    0.0000 C   0  0  0  0  0  0  0  0  0  0  0  0
   18.8575  -10.2858    0.0000 C   0  0  0  0  0  0  0  0  0  0  0  0
   20.2867  -10.2843    0.0000 C   0  0  0  0  0  0  0  0  0  0  0  0
   18.8586  -11.1109    0.0000 C   0  0  0  0  0  0  0  0  0  0  0  0
   20.2875  -11.1093    0.0000 C   0  0  0  0  0  0  0  0  0  0  0  0
   19.5735  -11.5226    0.0000 N   0  0  0  0  0  0  0  0  0  0  0  0
   20.9978   -7.3960    0.0000 O   0  0  0  0  0  0  0  0  0  0  0  0
   21.7127   -7.8078    0.0000 C   0  0  0  0  0  0  0  0  0  0  0  0
   18.1417   -9.0492    0.0000 C   0  0  0  0  0  0  0  0  0  0  0  0
   22.4267   -7.3945    0.0000 C   0  0  0  0  0  0  0  0  0  0  0  0
   21.7136   -8.6328    0.0000 C   0  0  0  0  0  0  0  0  0  0  0  0
   15.2773   -7.4052    0.0000 S   0  0  0  0  0  0  0  0  0  0  0  0
   14.5628   -7.8178    0.0000 C   0  0  0  0  0  0  0  0  0  0  0  0
   15.6898   -8.1197    0.0000 O   0  0  0  0  0  0  0  0  0  0  0  0
   16.1023   -7.4052    0.0000 O   0  0  0  0  0  0  0  0  0  0  0  0
   13.8483   -7.4053    0.0000 C   0  0  0  0  0  0  0  0  0  0  0  0
   14.5628   -8.6428    0.0000 C   0  0  0  0  0  0  0  0  0  0  0  0
  2  1  2  0
  3  1  1  0
  4  2  1  0
  5  3  2  0
  6  4  2  0
  6  5  1  0
  2  7  1  0
  6  8  1  0
 10  9  2  0
 11  9  1  0
 12 10  1  0
 13 11  2  0
 14 12  2  0
 14 13  1  0
  8  9  1  0
  5 15  1  0
 17 16  2  0
 18 16  1  0
 19 17  1  0
 20 18  2  0
 21 19  2  0
 21 20  1  0
  7 16  1  0
 23 22  1  0
 24 22  1  0
 25 23  1  0
 26 24  1  0
 27 25  1  0
 27 26  1  0
 21 22  1  0
 18 28  1  0
 28 29  1  0
 19 30  1  0
 29 31  1  0
 29 32  1  0
 10 33  1  0
 33 34  1  0
 33 35  2  0
 33 36  2  0
 34 37  1  0
 34 38  1  0
M  END
$$$$
