
     RDKit          2D

 19 19  0  0  0  0  0  0  0  0999 V2000
   -0.3572   -0.8294    0.0000 O   0  0  0  0  0  0  0  0  0  0  0  0
   -1.0635    0.4167    0.0000 O   0  0  0  0  0  0  0  0  0  0  0  0
    3.2620   -0.4167    0.0000 O   0  0  0  0  0  0  0  0  0  0  0  0
    2.5160    0.8294    0.0000 N   0  0  0  0  0  0  0  0  0  0  0  0
   -2.5160   -0.4167    0.0000 N   0  0  0  0  0  0  0  0  0  0  0  0
    0.3968   -0.4167    0.0000 C   0  0  0  0  0  0  0  0  0  0  0  0
    1.8096    0.4167    0.0000 C   0  0  0  0  0  0  0  0  0  0  0  0
   -1.0635   -0.4167    0.0000 C   0  0  0  0  0  0  0  0  0  0  0  0
    1.1032   -0.8294    0.0000 C   0  0  0  0  0  0  0  0  0  0  0  0
    0.3968    0.4167    0.0000 C   0  0  0  0  0  0  0  0  0  0  0  0
    1.8096   -0.4167    0.0000 C   0  0  0  0  0  0  0  0  0  0  0  0
    1.1032    0.8294    0.0000 C   0  0  0  0  0  0  0  0  0  0  0  0
   -1.8096   -0.8294    0.0000 C   0  0  0  0  0  0  0  0  0  0  0  0
    3.2620    0.4167    0.0000 C   0  0  0  0  0  0  0  0  0  0  0  0
   -3.2224   -0.8294    0.0000 C   0  0  0  0  0  0  0  0  0  0  0  0
   -2.5160    0.4167    0.0000 C   0  0  0  0  0  0  0  0  0  0  0  0
    3.9684    0.8294    0.0000 C   0  0  0  0  0  0  0  0  0  0  0  0
   -3.9684   -0.4167    0.0000 C   0  0  0  0  0  0  0  0  0  0  0  0
   -3.2303    0.8294    0.0000 C   0  0  0  0  0  0  0  0  0  0  0  0
  1  6  1  0
  1  8  1  0
  2  8  2  0
  3 14  2  0
  4  7  1  0
  4 14  1  0
  5 13  1  0
  5 15  1  0
  5 16  1  0
  6  9  2  0
  6 10  1  0
  7 11  2  0
  7 12  1  0
  8 13  1  0
  9 11  1  0
 10 12  2  0
 14 17  1  0
 15 18  1  0
 16 19  1  0
M  END
$$$$
