
     RDKit          2D

 15 16  0  0  0  0  0  0  0  0999 V2000
   -0.3081    0.5844    0.0000 N   0  0  0  0  0  0  0  0  0  0  0  0
    0.4063   -0.6530    0.0000 N   0  0  0  0  0  0  0  0  0  0  0  0
   -0.3081   -1.8905    0.0000 N   0  0  0  0  0  0  0  0  0  0  0  0
    1.1870   -0.4016    0.0000 N   0  0  0  0  0  0  0  0  0  0  0  0
    1.1870   -1.7294    0.0000 N   0  0  0  0  0  0  0  0  0  0  0  0
   -0.3081   -0.2405    0.0000 C   0  0  0  0  0  0  0  0  0  0  0  0
   -1.0225    0.9969    0.0000 C   0  0  0  0  0  0  0  0  0  0  0  0
    0.4063    0.9969    0.0000 C   0  0  0  0  0  0  0  0  0  0  0  0
   -1.0225   -0.6530    0.0000 C   0  0  0  0  0  0  0  0  0  0  0  0
    0.4063   -1.4780    0.0000 C   0  0  0  0  0  0  0  0  0  0  0  0
   -1.0225   -1.4780    0.0000 C   0  0  0  0  0  0  0  0  0  0  0  0
   -1.0225    1.8219    0.0000 C   0  0  0  0  0  0  0  0  0  0  0  0
    0.4063    1.8219    0.0000 C   0  0  0  0  0  0  0  0  0  0  0  0
   -1.7370   -1.8905    0.0000 C   0  0  0  0  0  0  0  0  0  0  0  0
    1.6684   -1.0655    0.0000 C   0  0  0  0  0  0  0  0  0  0  0  0
  1  6  1  0
  1  7  1  0
  1  8  1  0
  2  4  1  0
  2  6  1  0
  2 10  1  0
  3 10  1  0
  3 11  2  0
  4 15  2  0
  5 10  2  0
  5 15  1  0
  6  9  2  0
  7 12  1  0
  8 13  1  0
  9 11  1  0
 11 14  1  0
M  END
$$$$
