
     RDKit          2D

 36 39  0  0  0  0  0  0  0  0999 V2000
    2.5015    2.8752    0.0000 N   0  0  0  0  0  0  0  0  0  0  0  0
   -1.0705    2.4511    0.0000 N   0  0  0  0  0  0  0  0  0  0  0  0
   -1.0722    1.6267    0.0000 C   0  0  0  0  0  0  0  0  0  0  0  0
   -0.3558    1.2136    0.0000 N   0  0  0  0  0  0  0  0  0  0  0  0
    0.3588    1.6274    0.0000 C   0  0  0  0  0  0  0  0  0  0  0  0
    0.3587    2.4566    0.0000 C   0  0  0  0  0  0  0  0  0  0  0  0
   -0.3585    2.8641    0.0000 C   0  0  0  0  0  0  0  0  0  0  0  0
   -0.3561    0.3886    0.0000 C   0  0  0  0  0  0  0  0  0  0  0  0
    0.3595   -0.0241    0.0000 C   0  0  0  0  0  0  0  0  0  0  0  0
    0.3529   -0.8506    0.0000 C   0  0  0  0  0  0  0  0  0  0  0  0
    1.0674   -1.2632    0.0000 C   0  0  0  0  0  0  0  0  0  0  0  0
    1.7850   -0.8509    0.0000 C   0  0  0  0  0  0  0  0  0  0  0  0
    1.7813   -0.0193    0.0000 C   0  0  0  0  0  0  0  0  0  0  0  0
    1.0658    0.3876    0.0000 C   0  0  0  0  0  0  0  0  0  0  0  0
    2.4961   -1.2614    0.0000 C   0  0  0  0  0  0  0  0  0  0  0  0
    2.4957   -2.0876    0.0000 C   0  0  0  0  0  0  0  0  0  0  0  0
    3.2108   -2.4993    0.0000 C   0  0  0  0  0  0  0  0  0  0  0  0
    3.9275   -2.0855    0.0000 C   0  0  0  0  0  0  0  0  0  0  0  0
    3.9221   -1.2541    0.0000 C   0  0  0  0  0  0  0  0  0  0  0  0
    3.2101   -0.8484    0.0000 C   0  0  0  0  0  0  0  0  0  0  0  0
    1.8462   -2.5954    0.0000 C   0  0  0  0  0  0  0  0  0  0  0  0
    1.0532   -2.3662    0.0000 N   0  0  0  0  0  0  0  0  0  0  0  0
    0.5909   -3.0478    0.0000 N   0  0  0  0  0  0  0  0  0  0  0  0
    1.0969   -3.7002    0.0000 N   0  0  0  0  0  0  0  0  0  0  0  0
    1.8721   -3.4196    0.0000 N   0  0  0  0  0  0  0  0  0  0  0  0
    1.0758    1.2125    0.0000 O   0  0  0  0  0  0  0  0  0  0  0  0
   -1.7844    1.2151    0.0000 C   0  0  0  0  0  0  0  0  0  0  0  0
   -2.4998    1.6242    0.0000 C   0  0  0  0  0  0  0  0  0  0  0  0
   -3.2163    1.2126    0.0000 C   0  0  0  0  0  0  0  0  0  0  0  0
   -3.9275    1.6260    0.0000 C   0  0  0  0  0  0  0  0  0  0  0  0
   -0.3581    3.6891    0.0000 C   0  0  0  0  0  0  0  0  0  0  0  0
    1.0723    2.8733    0.0000 C   0  0  0  0  0  0  0  0  0  0  0  0
    1.7863    2.4606    0.0000 C   0  0  0  0  0  0  0  0  0  0  0  0
    1.7897    1.6357    0.0000 S   0  0  0  0  0  0  0  0  0  0  0  0
    3.2185    2.4644    0.0000 C   0  0  0  0  0  0  0  0  0  0  0  0
    2.4995    3.7002    0.0000 C   0  0  0  0  0  0  0  0  0  0  0  0
  3  4  1  0
  4  5  1  0
  5  6  1  0
  6  7  2  0
  7  2  1  0
  4  8  1  0
  8  9  1  0
  9 10  2  0
 10 11  1  0
 11 12  2  0
 12 13  1  0
 13 14  2  0
 14  9  1  0
 15 16  1  0
 16 17  2  0
 17 18  1  0
 18 19  2  0
 19 20  1  0
 20 15  2  0
 12 15  1  0
 24 25  1  0
 22 23  1  0
 21 22  2  0
 23 24  2  0
 25 21  1  0
 16 21  1  0
  5 26  2  0
  3 27  1  0
 27 28  1  0
 28 29  1  0
 29 30  1  0
  7 31  1  0
  6 32  1  0
 32 33  1  0
 33  1  1  0
 33 34  2  0
  1 35  1  0
  1 36  1  0
  2  3  2  0
M  END
$$$$
