
     RDKit          2D

 22 22  0  0  0  0  0  0  0  0999 V2000
   -4.3936   -1.6500    0.0000 C   0  0  0  0  0  3  0  0  0  0  0  0
   -1.5358   -1.6500    0.0000 C   0  0  0  0  0  0  0  0  0  0  0  0
   -3.6792    2.8875    0.0000 C   0  0  0  0  0  0  0  0  0  0  0  0
   -4.3936    3.3000    0.0000 C   0  0  0  0  0  0  0  0  0  0  0  0
   -3.6792    2.0625    0.0000 C   0  0  0  0  0  0  0  0  0  0  0  0
   -5.1081    2.8875    0.0000 C   0  0  0  0  0  0  0  0  0  0  0  0
   -2.2502   -0.4125    0.0000 C   0  0  0  0  0  0  0  0  0  0  0  0
   -2.9647   -0.8250    0.0000 C   0  0  0  0  0  0  0  0  0  0  0  0
   -5.1081   -0.4125    0.0000 C   0  0  0  0  0  0  0  0  0  0  0  0
   -5.8226    0.8250    0.0000 C   0  0  0  0  0  0  0  0  0  0  0  0
   -4.3936   -0.8250    0.0000 C   0  0  0  0  0  0  0  0  0  0  0  0
   -4.3936    1.6500    0.0000 C   0  0  0  0  0  0  0  0  0  0  0  0
   -5.1081    2.0625    0.0000 C   0  0  0  0  0  0  0  0  0  0  0  0
   -6.5371    0.4125    0.0000 C   0  0  0  0  0  0  0  0  0  0  0  0
   -4.3936    0.8250    0.0000 C   0  0  0  0  0  0  0  0  0  0  0  0
   -5.1081    0.4125    0.0000 N   0  0  0  0  0  0  0  0  0  0  0  0
   -6.5371   -0.4125    0.0000 O   0  0  0  0  0  0  0  0  0  0  0  0
   -7.2515    0.8250    0.0000 O   0  0  0  0  0  0  0  0  0  0  0  0
   -3.6792    0.4125    0.0000 O   0  0  0  0  0  0  0  0  0  0  0  0
   -1.5358   -0.8250    0.0000 O   0  0  0  0  0  0  0  0  0  0  0  0
   -3.6792   -0.4125    0.0000 O   0  0  0  0  0  0  0  0  0  0  0  0
   -5.8226    1.6500    0.0000 O   0  0  0  0  0  0  0  0  0  0  0  0
  4  3  2  0
  5  3  1  0
  6  4  1  0
  8  7  1  0
 11  1  1  0
 11  9  1  0
 12  5  2  0
 13  6  2  0
 13 12  1  0
 14 10  1  0
 15 12  1  0
 16  9  1  0
 16 15  2  3
 17 14  2  0
 18 14  1  0
 19 15  1  0
 20  2  1  0
 20  7  1  0
 21  8  1  0
 21 11  1  0
 22 10  1  0
 22 13  1  0
M  CHG  1  18  -1
M  RAD  1   1   2
M  END
$$$$
