
     RDKit          2D

  3  2  0  0  0  0  0  0  0  0999 V2000
   -0.7101   -0.2242    0.0000 O   0  0  0  0  0  0  0  0  0  0  0  0
    0.7101   -0.1644    0.0000 O   0  0  0  0  0  0  0  0  0  0  0  0
   -0.0164    0.2242    0.0000 N   0  0  0  0  0  0  0  0  0  0  0  0
  1  3  1  0
  2  3  2  0
M  END
$$$$
