
     RDKit          2D

 27 30  0  0  0  0  0  0  0  0999 V2000
   -0.4386    0.7834    0.0000 C   0  0  0  0  0  0  0  0  0  0  0  0
   -1.1526    0.3701    0.0000 C   0  0  0  0  0  0  0  0  0  0  0  0
    0.2753    0.3701    0.0000 C   0  0  0  0  0  0  0  0  0  0  0  0
   -1.1526   -0.4566    0.0000 O   0  0  0  0  0  0  0  0  0  0  0  0
   -0.4386   -0.8699    0.0000 C   0  0  0  0  0  0  0  0  0  0  0  0
   -1.4782    1.0464    0.0000 O   0  0  0  0  0  0  0  0  0  0  0  0
   -1.9542    0.5581    0.0000 O   0  0  0  0  0  0  0  0  0  0  0  0
   -0.4762    1.6394    0.0000 C   0  0  0  0  0  0  0  0  0  0  0  0
   -2.3049    1.3012    0.0000 C   0  0  0  0  0  0  0  0  0  0  0  0
    0.2753   -0.4566    0.0000 C   0  0  0  0  0  0  0  0  0  0  0  0
   -1.5408    1.7019    0.0000 O   0  0  0  0  0  0  0  0  0  0  0  0
    0.9099    0.8711    0.0000 C   0  0  0  0  0  0  0  0  0  0  0  0
   -1.1317    2.2239    0.0000 C   0  0  0  0  0  0  0  0  0  0  0  0
   -0.4428   -1.6966    0.0000 O   0  0  0  0  0  0  0  0  0  0  0  0
    0.2126    2.1028    0.0000 C   0  0  0  0  0  0  0  0  0  0  0  0
    0.9140    1.6853    0.0000 C   0  0  0  0  0  0  0  0  0  0  0  0
   -1.9417    2.0485    0.0000 C   0  0  0  0  0  0  0  0  0  0  0  0
   -3.1316    1.3095    0.0000 C   0  0  0  0  0  0  0  0  0  0  0  0
    0.9892   -0.8699    0.0000 C   0  0  0  0  0  0  0  0  0  0  0  0
    0.2084    2.9295    0.0000 C   0  0  0  0  0  0  0  0  0  0  0  0
    0.2740   -2.1046    0.0000 C   0  0  0  0  0  0  0  0  0  0  0  0
    0.2740   -2.9296    0.0000 O   0  0  0  0  0  0  0  0  0  0  0  0
    0.9872   -1.6899    0.0000 C   0  0  0  0  0  0  0  0  0  0  0  0
    1.7028   -2.1002    0.0000 C   0  0  0  0  0  0  0  0  0  0  0  0
    2.4160   -1.6855    0.0000 C   0  0  0  0  0  0  0  0  0  0  0  0
    3.1317   -2.0958    0.0000 O   0  0  0  0  0  0  0  0  0  0  0  0
    2.4135   -0.8605    0.0000 O   0  0  0  0  0  0  0  0  0  0  0  0
  2  1  1  0
  3  1  1  0
  2  4  1  6
  5 10  1  0
  1  6  1  6
  7  2  1  0
  8  1  1  0
  9 11  1  0
 10  3  1  0
 11  6  1  0
  3 12  1  1
  8 13  1  1
  5 14  1  6
 15  8  1  0
 16 15  1  0
 17 13  1  0
  9 18  1  6
 10 19  1  1
 15 20  1  6
 16 12  1  0
  9 17  1  0
  9  7  1  0
  5  4  1  0
 14 21  1  0
 21 22  2  0
 21 23  1  0
 23 24  1  0
 24 25  1  0
 25 26  1  0
 25 27  2  0
M  END
$$$$
