
     RDKit          2D

 35 38  0  0  0  0  0  0  0  0999 V2000
    1.0973    0.1656    0.0000 C   0  0  0  0  0  0  0  0  0  0  0  0
    1.0973    0.9938    0.0000 C   0  0  0  0  0  0  0  0  0  0  0  0
    1.8012    1.4079    0.0000 C   0  0  0  0  0  0  0  0  0  0  0  0
    2.5051    0.9938    0.0000 C   0  0  0  0  0  0  0  0  0  0  0  0
    2.5051    0.1656    0.0000 C   0  0  0  0  0  0  0  0  0  0  0  0
    1.8012   -0.2484    0.0000 C   0  0  0  0  0  0  0  0  0  0  0  0
    1.8012   -1.0765    0.0000 C   0  0  0  0  0  0  0  0  0  0  0  0
    1.8012   -1.9047    0.0000 F   0  0  0  0  0  0  0  0  0  0  0  0
    0.9730   -1.0765    0.0000 F   0  0  0  0  0  0  0  0  0  0  0  0
    2.5879   -1.0765    0.0000 F   0  0  0  0  0  0  0  0  0  0  0  0
    3.2504    1.4079    0.0000 C   0  0  0  0  0  0  0  0  0  0  0  0
    3.9543    1.8219    0.0000 F   0  0  0  0  0  0  0  0  0  0  0  0
    2.8363    2.1118    0.0000 F   0  0  0  0  0  0  0  0  0  0  0  0
    3.6644    0.6625    0.0000 F   0  0  0  0  0  0  0  0  0  0  0  0
    0.3519    1.4079    0.0000 C   0  0  0  0  0  0  0  0  0  0  0  0
   -0.3519    0.9938    0.0000 O   0  0  0  0  0  0  0  0  0  0  0  0
   -1.0558    1.4079    0.0000 C   0  0  0  0  0  0  0  0  0  0  0  0
   -1.8012    0.9938    0.0000 C   0  0  0  0  0  0  0  0  0  0  0  0
   -2.5051    1.4079    0.0000 C   0  0  0  0  0  0  0  0  0  0  0  0
   -1.0558    0.5383    0.0000 N   0  0  0  0  0  0  0  0  0  0  0  0
   -1.0558   -0.2898    0.0000 C   0  0  0  0  0  0  0  0  0  0  0  0
   -1.7597   -0.7039    0.0000 C   0  0  0  0  0  0  0  0  0  0  0  0
   -2.5051   -0.2484    0.0000 C   0  0  0  0  0  0  0  0  0  0  0  0
   -2.5051    0.5797    0.0000 C   0  0  0  0  0  0  0  0  0  0  0  0
   -1.0973   -1.1593    0.0000 C   0  0  0  0  0  0  0  0  0  0  0  0
   -1.3457   -1.9460    0.0000 C   0  0  0  0  0  0  0  0  0  0  0  0
   -2.1738   -1.9460    0.0000 C   0  0  0  0  0  0  0  0  0  0  0  0
   -2.4637   -1.1593    0.0000 N   0  0  0  0  0  0  0  0  0  0  0  0
   -2.6707   -2.6086    0.0000 O   0  0  0  0  0  0  0  0  0  0  0  0
   -3.2504    0.9523    0.0000 C   0  0  0  0  0  0  0  0  0  0  0  0
   -3.9543    1.3664    0.0000 C   0  0  0  0  0  0  0  0  0  0  0  0
   -3.9543    2.1946    0.0000 C   0  0  0  0  0  0  0  0  0  0  0  0
   -3.2089    2.6086    0.0000 C   0  0  0  0  0  0  0  0  0  0  0  0
   -2.5051    2.1946    0.0000 C   0  0  0  0  0  0  0  0  0  0  0  0
    0.3519    2.1946    0.0000 C   0  0  0  0  0  0  0  0  0  0  0  0
  1  2  2  0
  2  3  1  0
  3  4  2  0
  4  5  1  0
  5  6  2  0
  1  6  1  0
  6  7  1  0
  7  8  1  0
  7  9  1  0
  7 10  1  0
  4 11  1  0
 11 12  1  0
 11 13  1  0
 11 14  1  0
  2 15  1  0
 15 16  1  0
 16 17  1  0
 18 17  1  6
 18 19  1  0
 18 20  1  0
 20 21  1  0
 22 21  1  6
 22 23  1  0
 23 24  1  0
 18 24  1  0
 22 25  1  0
 25 26  1  0
 26 27  1  0
 27 28  1  0
 22 28  1  0
 27 29  2  0
 19 30  2  0
 30 31  1  0
 31 32  2  0
 32 33  1  0
 33 34  2  0
 19 34  1  0
 15 35  1  6
M  END
$$$$
