
     RDKit          2D

 22 25  0  0  0  0  0  0  0  0999 V2000
    1.7099   -2.4055    0.0000 C   0  0  0  0  0  0  0  0  0  0  0  0
    5.0883    1.2320    0.0000 C   0  0  0  0  0  0  0  0  0  0  0  0
    4.9654    2.0478    0.0000 C   0  0  0  0  0  0  0  0  0  0  0  0
    4.4433    0.7176    0.0000 C   0  0  0  0  0  0  0  0  0  0  0  0
    4.1974    2.3492    0.0000 C   0  0  0  0  0  0  0  0  0  0  0  0
    3.9863   -0.5894    0.0000 C   0  0  0  0  0  0  0  0  0  0  0  0
    1.5437    0.5047    0.0000 C   0  0  0  0  0  0  0  0  0  0  0  0
    1.4200   -1.6331    0.0000 C   0  0  0  0  0  0  0  0  0  0  0  0
    3.6753    1.0190    0.0000 C   0  0  0  0  0  0  0  0  0  0  0  0
    3.2139   -0.2996    0.0000 C   0  0  0  0  0  0  0  0  0  0  0  0
    3.5524    1.8348    0.0000 C   0  0  0  0  0  0  0  0  0  0  0  0
    3.9493   -1.4136    0.0000 C   0  0  0  0  0  0  0  0  0  0  0  0
    1.3602   -0.2996    0.0000 C   0  0  0  0  0  0  0  0  0  0  0  0
    3.0303    0.5047    0.0000 C   0  0  0  0  0  0  0  0  0  0  0  0
    2.6995   -0.9446    0.0000 C   0  0  0  0  0  0  0  0  0  0  0  0
    4.5943   -1.9280    0.0000 Br  0  0  0  0  0  0  0  0  0  0  0  0
    2.7844    2.1362    0.0000 Cl  0  0  0  0  0  0  0  0  0  0  0  0
    2.2870    0.8626    0.0000 N   0  0  0  0  0  0  0  0  0  0  0  0
    0.6248   -1.4136    0.0000 N   0  0  0  0  0  0  0  0  0  0  0  0
    0.5878   -0.5894    0.0000 N   0  0  0  0  0  0  0  0  0  0  0  0
    1.8745   -0.9446    0.0000 N   0  0  0  0  0  0  0  0  0  0  0  0
    3.1540   -1.6331    0.0000 S   0  0  0  0  0  0  0  0  0  0  0  0
  3  2  2  0
  4  2  1  0
  5  3  1  0
  8  1  1  0
  9  4  2  0
 10  6  1  0
 11  5  2  0
 11  9  1  0
 12  6  2  0
 13  7  1  0
 14  9  1  0
 14 10  1  0
 15 10  2  0
 16 12  1  0
 17 11  1  0
 18  7  1  0
 18 14  2  0
 19  8  2  0
 20 13  2  0
 20 19  1  0
 21  8  1  0
 21 13  1  0
 21 15  1  0
 22 12  1  0
 22 15  1  0
M  END
$$$$
