
     RDKit          2D

  9  9  0  0  0  0  0  0  0  0999 V2000
    4.1720   -1.0542    0.0000 C   0  0  0  0  0  0  0  0  0  0  0  0
    3.4576   -1.4667    0.0000 C   0  0  0  0  0  0  0  0  0  0  0  0
    2.7431   -1.0542    0.0000 C   0  0  0  0  0  0  0  0  0  0  0  0
    2.7431   -0.2292    0.0000 N   0  0  0  0  0  0  0  0  0  0  0  0
    3.4576    0.1833    0.0000 C   0  0  0  0  0  0  0  0  0  0  0  0
    4.1720   -0.2292    0.0000 C   0  0  0  0  0  0  0  0  0  0  0  0
    3.4576    1.0083    0.0000 C   0  0  0  0  0  0  0  0  0  0  0  0
    2.7431    1.4208    0.0000 O   0  0  0  0  0  0  0  0  0  0  0  0
    4.1720    1.4208    0.0000 O   0  0  0  0  0  0  0  0  0  0  0  0
  1  2  2  0
  2  3  1  0
  3  4  2  0
  4  5  1  0
  5  6  2  0
  1  6  1  0
  5  7  1  0
  7  8  2  0
  7  9  1  0
M  CHG  1   9  -1
M  END
$$$$
