
     RDKit          2D

 20 20  0  0  0  0  0  0  0  0999 V2000
    1.4161    2.3288    0.0000 C   0  0  0  0  0  0  0  0  0  0  0  0
    0.6143    1.6344    0.0000 C   0  0  0  0  0  0  0  0  0  0  0  0
    3.2995    1.6763    0.0000 C   0  0  0  0  0  0  0  0  0  0  0  0
    3.5000    0.6348    0.0000 C   0  0  0  0  0  0  0  0  0  0  0  0
    0.3359    1.3933    0.0000 C   0  0  0  0  0  0  0  0  0  0  0  0
   -0.4658    0.6990    0.0000 C   0  0  0  0  0  0  0  0  0  0  0  0
    2.4198   -0.3006    0.0000 C   0  0  0  0  0  0  0  0  0  0  0  0
    1.9932   -0.6701    0.0000 C   0  0  0  0  0  0  0  0  0  0  0  0
   -0.0891   -1.2584    0.0000 C   0  0  0  0  0  0  0  0  0  0  0  0
    0.9130   -1.6055    0.0000 C   0  0  0  0  0  0  0  0  0  0  0  0
    2.2391    1.6598    0.0000 O   0  0  0  0  0  0  0  0  0  0  0  0
    1.1589    0.7243    0.0000 O   0  0  0  0  0  0  0  0  0  0  0  0
    2.5091    0.2566    0.0000 O   0  0  0  0  0  0  0  0  0  0  0  0
    0.0787   -0.2111    0.0000 O   0  0  0  0  0  0  0  0  0  0  0  0
    1.4289   -0.6789    0.0000 O   0  0  0  0  0  0  0  0  0  0  0  0
    1.4289    1.5039    0.0000 Si  0  0  0  0  0  4  0  0  0  0  0  0
    2.7792    1.0361    0.0000 Si  0  0  0  0  0  4  0  0  0  0  0  0
    0.3488    0.5684    0.0000 Si  0  0  0  0  0  4  0  0  0  0  0  0
    1.6990    0.1007    0.0000 Si  0  0  0  0  0  4  0  0  0  0  0  0
    0.6188   -0.8348    0.0000 Si  0  0  0  0  0  4  0  0  0  0  0  0
 16  1  1  0
 16  2  1  0
 16 11  1  0
 16 12  1  0
 17  3  1  0
 17  4  1  0
 17 11  1  0
 17 13  1  0
 18  5  1  0
 18  6  1  0
 18 12  1  0
 18 14  1  0
 19  7  1  0
 19  8  1  0
 19 13  1  0
 19 15  1  0
 20  9  1  0
 20 10  1  0
 20 14  1  0
 20 15  1  0
M  END
$$$$
