
     RDKit          2D

 29 32  0  0  0  0  0  0  0  0999 V2000
   -2.6424   -0.5258    0.0000 C   0  0  0  0  0  0  0  0  0  0  0  0
   -3.3568   -0.9383    0.0000 C   0  0  0  0  0  0  0  0  0  0  0  0
   -2.6424   -2.1759    0.0000 C   0  0  0  0  0  0  0  0  0  0  0  0
   -1.2134   -2.1759    0.0000 C   0  0  0  0  0  0  0  0  0  0  0  0
   -1.9279   -0.9383    0.0000 C   0  0  0  0  0  0  0  0  0  0  0  0
   -1.2134    0.2991    0.0000 C   0  0  0  0  0  0  0  0  0  0  0  0
    1.0000   -0.7807    0.0000 C   0  0  0  0  0  0  0  0  0  0  0  0
    1.4850   -0.1133    0.0000 C   0  0  0  0  0  0  0  0  0  0  0  0
   -1.9279   -0.1133    0.0000 C   0  0  0  0  0  0  0  0  0  0  0  0
   -1.2134   -0.5258    0.0000 C   0  0  0  0  0  0  0  0  0  0  0  0
   -0.4990   -0.9383    0.0000 C   0  0  0  0  0  0  0  0  0  0  0  0
    0.2154   -0.5258    0.0000 C   0  0  0  0  0  0  0  0  0  0  0  0
    0.2154    0.2991    0.0000 C   0  0  0  0  0  0  0  0  0  0  0  0
    0.2154    1.1241    0.0000 C   0  0  0  0  0  0  0  0  0  0  0  0
   -3.3568   -1.7633    0.0000 C   0  0  0  0  0  0  0  0  0  0  0  0
   -4.0713   -2.1759    0.0000 O   0  0  0  0  0  0  0  0  0  0  0  0
   -0.4990   -1.7633    0.0000 C   0  0  0  0  0  0  0  0  0  0  0  0
    0.2154   -2.1759    0.0000 O   0  0  0  0  0  0  0  0  0  0  0  0
   -1.9279   -1.7633    0.0000 C   0  0  0  0  0  0  0  0  0  0  0  0
    2.6425    1.3509    0.0000 C   0  0  0  0  0  0  0  0  0  0  0  0
    1.9280    1.7634    0.0000 C   0  0  0  0  0  0  0  0  0  0  0  0
    3.3569    1.7634    0.0000 C   0  0  0  0  0  0  0  0  0  0  0  0
    3.3569    2.5884    0.0000 O   0  0  0  0  0  0  0  0  0  0  0  0
    4.0713    1.3509    0.0000 O   0  0  0  0  0  0  0  0  0  0  0  0
    1.0000    0.5540    0.0000 C   0  0  0  0  0  0  0  0  0  0  0  0
   -0.4990    0.7116    0.0000 C   0  0  0  0  0  0  0  0  0  0  0  0
   -0.4990    1.5366    0.0000 O   0  0  0  0  0  0  0  0  0  0  0  0
    1.2135    1.3509    0.0000 C   0  0  0  0  0  0  0  0  0  0  0  0
    0.6302    1.9343    0.0000 C   0  0  0  0  0  0  0  0  0  0  0  0
 12 13  1  0
 13 25  1  0
 13 26  1  0
 11 12  1  0
 12  7  1  1
 10  6  1  1
  5 10  1  0
 10 11  1  0
 11 17  1  6
 19  5  1  0
  5  9  1  1
  5  1  1  0
 25  8  1  1
  6 26  1  0
  8  7  1  0
  4 17  1  0
 19  3  1  6
 19  4  1  0
  2  1  1  0
 15  3  1  0
 15  2  1  0
 13 14  1  1
 15 16  2  0
 17 18  2  0
 20 21  1  0
 20 22  1  0
 28 21  1  0
 22 24  1  0
 22 23  2  0
 25 28  1  0
 26 27  2  0
 28 29  1  6
M  END
$$$$
