
     RDKit          2D

 61 68  0  0  0  0  0  0  0  0999 V2000
   -3.9187   -0.2475    0.0000 C   0  0  0  0  0  0  0  0  0  0  0  0
   -3.9187   -1.0725    0.0000 N   0  0  0  0  0  0  0  0  0  0  0  0
   -3.2175   -1.4850    0.0000 C   0  0  0  0  0  0  0  0  0  0  0  0
   -2.5162   -1.0725    0.0000 C   0  0  0  0  0  0  0  0  0  0  0  0
   -2.5162   -0.2475    0.0000 N   0  0  0  0  0  0  0  0  0  0  0  0
   -3.2175    0.1650    0.0000 C   0  0  0  0  0  0  0  0  0  0  0  0
   -1.7737    0.1650    0.0000 C   0  0  0  0  0  0  0  0  0  0  0  0
   -4.6612   -1.4850    0.0000 C   0  0  0  0  0  0  0  0  0  0  0  0
   -5.3625   -1.0725    0.0000 C   0  0  0  0  0  0  0  0  0  0  0  0
   -5.3625   -0.2475    0.0000 C   0  0  0  0  0  0  0  0  0  0  0  0
   -6.0637    0.1650    0.0000 C   0  0  0  0  0  0  0  0  0  0  0  0
   -6.8062   -0.2475    0.0000 C   0  0  0  0  0  0  0  0  0  0  0  0
   -6.8062   -1.0725    0.0000 C   0  0  0  0  0  0  0  0  0  0  0  0
   -6.0637   -1.4850    0.0000 C   0  0  0  0  0  0  0  0  0  0  0  0
   -6.0637   -2.3100    0.0000 C   0  0  0  0  0  0  0  0  0  0  0  0
   -6.8062   -2.7225    0.0000 C   0  0  0  0  0  0  0  0  0  0  0  0
   -6.8062   -3.5475    0.0000 C   0  0  0  0  0  0  0  0  0  0  0  0
   -6.0637   -3.9600    0.0000 C   0  0  0  0  0  0  0  0  0  0  0  0
   -5.3625   -3.5475    0.0000 C   0  0  0  0  0  0  0  0  0  0  0  0
   -5.3625   -2.7225    0.0000 C   0  0  0  0  0  0  0  0  0  0  0  0
   -6.0637   -4.7850    0.0000 Cl  0  0  0  0  0  0  0  0  0  0  0  0
   -7.0950    0.3712    0.0000 C   0  0  0  0  0  0  0  0  0  0  0  0
   -7.5075   -0.3300    0.0000 C   0  0  0  0  0  0  0  0  0  0  0  0
   -1.0725   -0.2475    0.0000 C   0  0  0  0  0  0  0  0  0  0  0  0
   -0.3300    0.1237    0.0000 C   0  0  0  0  0  0  0  0  0  0  0  0
   -0.3300    1.0312    0.0000 C   0  0  0  0  0  0  0  0  0  0  0  0
    0.3712    1.4437    0.0000 C   0  0  0  0  0  0  0  0  0  0  0  0
    1.0725    1.0312    0.0000 N   0  0  0  0  0  0  0  0  0  0  0  0
    1.7737    1.4025    0.0000 S   0  0  0  0  0  0  0  0  0  0  0  0
    2.4750    0.9900    0.0000 C   0  0  0  0  0  0  0  0  0  0  0  0
    0.3712    2.2275    0.0000 O   0  0  0  0  0  0  0  0  0  0  0  0
    2.4750    0.1650    0.0000 C   0  0  0  0  0  0  0  0  0  0  0  0
    3.2175   -0.2475    0.0000 C   0  0  0  0  0  0  0  0  0  0  0  0
    3.9187    0.1650    0.0000 C   0  0  0  0  0  0  0  0  0  0  0  0
    3.9187    0.9900    0.0000 C   0  0  0  0  0  0  0  0  0  0  0  0
    3.2175    1.4025    0.0000 C   0  0  0  0  0  0  0  0  0  0  0  0
    1.3612    2.1450    0.0000 O   0  0  0  0  0  0  0  0  0  0  0  0
    2.1862    2.1450    0.0000 O   0  0  0  0  0  0  0  0  0  0  0  0
    4.6612    1.4437    0.0000 N   0  0  0  0  0  0  0  0  0  0  0  0
    4.6612   -0.2475    0.0000 N   0  0  0  0  0  0  0  0  0  0  0  0
   -1.0312    1.4025    0.0000 C   0  0  0  0  0  0  0  0  0  0  0  0
   -1.7737    0.9900    0.0000 C   0  0  0  0  0  0  0  0  0  0  0  0
   -1.0312    2.2275    0.0000 O   0  0  0  0  0  0  0  0  0  0  0  0
   -1.7737    2.6400    0.0000 C   0  0  0  0  0  0  0  0  0  0  0  0
   -1.7325    3.4650    0.0000 C   0  0  0  0  0  0  0  0  0  0  0  0
   -2.4750    3.8775    0.0000 C   0  0  0  0  0  0  0  0  0  0  0  0
   -3.1762    3.4650    0.0000 C   0  0  0  0  0  0  0  0  0  0  0  0
   -3.1762    2.6400    0.0000 N   0  0  0  0  0  0  0  0  0  0  0  0
   -2.4750    2.2275    0.0000 C   0  0  0  0  0  0  0  0  0  0  0  0
   -2.6400    4.7025    0.0000 C   0  0  0  0  0  0  0  0  0  0  0  0
   -3.4650    4.7850    0.0000 C   0  0  0  0  0  0  0  0  0  0  0  0
   -3.7950    4.0012    0.0000 N   0  0  0  0  0  0  0  0  0  0  0  0
    5.3625    0.1650    0.0000 C   0  0  0  0  0  0  0  0  0  0  0  0
    6.1050   -0.2475    0.0000 C   0  0  0  0  0  0  0  0  0  0  0  0
    6.1050   -1.0725    0.0000 C   0  0  0  0  0  0  0  0  0  0  0  0
    6.8062   -1.4850    0.0000 C   0  0  0  0  0  0  0  0  0  0  0  0
    7.5075   -1.0725    0.0000 O   0  0  0  0  0  0  0  0  0  0  0  0
    7.5075   -0.2475    0.0000 C   0  0  0  0  0  0  0  0  0  0  0  0
    6.8062    0.1650    0.0000 C   0  0  0  0  0  0  0  0  0  0  0  0
    4.6612    2.2687    0.0000 O   0  0  0  0  0  0  0  0  0  0  0  0
    5.3625    1.0725    0.0000 O   0  0  0  0  0  0  0  0  0  0  0  0
  1  2  1  0
  2  3  1  0
  3  4  1  0
  4  5  1  0
  5  6  1  0
  1  6  1  0
  5  7  1  0
  2  8  1  0
  8  9  1  0
  9 10  1  0
 10 11  1  0
 11 12  1  0
 12 13  1  0
 13 14  1  0
  9 14  2  0
 14 15  1  0
 15 16  2  0
 16 17  1  0
 17 18  2  0
 18 19  1  0
 19 20  2  0
 15 20  1  0
 18 21  1  0
 12 22  1  0
 12 23  1  0
  7 24  2  0
 24 25  1  0
 26 27  1  0
 27 28  1  0
 28 29  1  0
 29 30  1  0
 27 31  2  0
 30 32  2  0
 32 33  1  0
 33 34  2  0
 34 35  1  0
 35 36  2  0
 30 36  1  0
 29 37  2  0
 29 38  2  0
 35 39  1  0
 34 40  1  0
 25 26  2  0
 26 41  1  0
 41 42  2  0
  7 42  1  0
 41 43  1  0
 43 44  1  0
 44 45  2  0
 45 46  1  0
 46 47  2  0
 47 48  1  0
 48 49  2  0
 44 49  1  0
 46 50  1  0
 50 51  2  0
 51 52  1  0
 47 52  1  0
 40 53  1  0
 53 54  1  0
 54 55  1  0
 55 56  1  0
 56 57  1  0
 57 58  1  0
 58 59  1  0
 54 59  1  0
 39 60  2  0
 39 61  1  0
M  CHG  2  39   1  61  -1
M  END
$$$$
