
     RDKit          2D

 14 14  0  0  0  0  0  0  0  0999 V2000
   -0.3561    0.4141    0.0000 C   0  0  0  0  0  0  0  0  0  0  0  0
   -1.0683   -0.0023    0.0000 C   0  0  0  0  0  0  0  0  0  0  0  0
   -0.3610    1.2426    0.0000 O   0  0  0  0  0  0  0  0  0  0  0  0
   -1.0683   -0.8308    0.0000 C   0  0  0  0  0  0  0  0  0  0  0  0
   -1.7805    0.4141    0.0000 C   0  0  0  0  0  0  0  0  0  0  0  0
   -2.4927   -0.8308    0.0000 C   0  0  0  0  0  0  0  0  0  0  0  0
    0.3559    0.0072    0.0000 O   0  0  0  0  0  0  0  0  0  0  0  0
   -3.2049   -1.2426    0.0000 N   0  0  0  0  0  0  0  0  0  0  0  0
   -1.7805   -1.2426    0.0000 C   0  0  0  0  0  0  0  0  0  0  0  0
   -2.4927   -0.0023    0.0000 C   0  0  0  0  0  0  0  0  0  0  0  0
    1.0682    0.4190    0.0000 C   0  0  0  0  0  0  0  0  0  0  0  0
    1.7804    0.0072    0.0000 C   0  0  0  0  0  0  0  0  0  0  0  0
    2.4926    0.4287    0.0000 C   0  0  0  0  0  0  0  0  0  0  0  0
    3.2049    0.0121    0.0000 C   0  0  0  0  0  0  0  0  0  0  0  0
  2  1  1  0
  3  1  2  0
  4  2  2  0
  5  2  1  0
  6 10  1  0
  7  1  1  0
  8  6  1  0
  9  4  1  0
 10  5  2  0
 11  7  1  0
 12 11  1  0
 13 12  1  0
 14 13  1  0
  9  6  2  0
M  END
$$$$
