
     RDKit          2D

 24 27  0  0  0  0  0  0  0  0999 V2000
   -1.7101    0.1509    0.0000 C   0  0  0  0  0  0  0  0  0  0  0  0
   -1.7101   -0.6741    0.0000 C   0  0  0  0  0  0  0  0  0  0  0  0
   -1.0088   -1.0866    0.0000 C   0  0  0  0  0  0  0  0  0  0  0  0
   -0.2663   -0.6741    0.0000 C   0  0  0  0  0  0  0  0  0  0  0  0
   -0.2663    0.1509    0.0000 C   0  0  0  0  0  0  0  0  0  0  0  0
   -1.0088    0.5635    0.0000 C   0  0  0  0  0  0  0  0  0  0  0  0
    0.4351   -1.0866    0.0000 C   0  0  0  0  0  0  0  0  0  0  0  0
    1.1363   -0.6741    0.0000 C   0  0  0  0  0  0  0  0  0  0  0  0
    1.1363    0.1509    0.0000 C   0  0  0  0  0  0  0  0  0  0  0  0
    0.4351    0.5635    0.0000 C   0  0  0  0  0  0  0  0  0  0  0  0
   -1.0088    1.3885    0.0000 N   0  0  0  0  0  0  0  0  0  0  0  0
   -0.3487    1.8836    0.0000 C   0  0  0  0  0  0  0  0  0  0  0  0
   -0.5963    2.6261    0.0000 N   0  0  0  0  0  0  0  0  0  0  0  0
   -1.4214    2.6261    0.0000 N   0  0  0  0  0  0  0  0  0  0  0  0
   -1.6689    1.8836    0.0000 C   0  0  0  0  0  0  0  0  0  0  0  0
    0.3524    1.4711    0.0000 S   0  0  0  0  0  0  0  0  0  0  0  0
    1.0538    1.8836    0.0000 C   0  0  0  0  0  0  0  0  0  0  0  0
    1.7551    1.4711    0.0000 C   0  0  0  0  0  0  0  0  0  0  0  0
    2.4564    1.8836    0.0000 O   0  0  0  0  0  0  0  0  0  0  0  0
    1.7551    0.6460    0.0000 O   0  0  0  0  0  0  0  0  0  0  0  0
   -2.4564    1.6377    0.0000 Br  0  0  0  0  0  0  0  0  0  0  0  0
   -1.0189   -1.9116    0.0000 C   0  0  0  0  0  0  0  0  0  0  0  0
   -1.4315   -2.6261    0.0000 C   0  0  0  0  0  0  0  0  0  0  0  0
   -0.6064   -2.6261    0.0000 C   0  0  0  0  0  0  0  0  0  0  0  0
  1  2  2  0
  2  3  1  0
  3  4  2  0
  4  5  1  0
  5  6  2  0
  1  6  1  0
  4  7  1  0
  7  8  2  0
  8  9  1  0
  9 10  2  0
  5 10  1  0
  6 11  1  0
 11 12  1  0
 12 13  2  0
 13 14  1  0
 14 15  2  0
 11 15  1  0
 12 16  1  0
 16 17  1  0
 17 18  1  0
 18 19  1  0
 18 20  2  0
 15 21  1  0
  3 22  1  0
 22 23  1  0
 22 24  1  0
 23 24  1  0
M  END
$$$$
