
     RDKit          2D

 42 49  0  0  0  0  0  0  0  0999 V2000
    6.6469   -4.7756    0.0000 C   0  0  0  0  0  0  0  0  0  0  0  0
    5.6694   -4.7659    0.0000 N   0  0  0  0  0  0  0  0  0  0  0  0
    7.0503   -4.0649    0.0000 C   0  0  0  0  0  0  0  0  0  0  0  0
    6.7693   -3.2601    0.0000 O   0  0  0  0  0  0  0  0  0  0  0  0
    7.8692   -4.0459    0.0000 N   0  0  0  0  0  0  0  0  0  0  0  0
    7.5613   -4.7659    0.0000 C   0  0  0  0  0  0  0  0  0  0  0  0
    7.1554   -5.4861    0.0000 C   0  0  0  0  0  0  0  0  0  0  0  0
    0.8243   -3.3477    0.0000 C   0  0  0  0  0  0  0  0  0  0  0  0
    0.4256   -4.0599    0.0000 C   0  0  0  0  0  0  0  0  0  0  0  0
    1.6619   -3.3432    0.0000 C   0  0  0  0  0  0  0  0  0  0  0  0
    2.0689   -2.6270    0.0000 C   0  0  0  0  0  0  0  0  0  0  0  0
    2.8808   -2.5715    0.0000 C   0  0  0  0  0  0  0  0  0  0  0  0
    3.4827   -2.0294    0.0000 N   0  0  0  0  0  0  0  0  0  0  0  0
    4.1543   -3.3485    0.0000 C   0  0  0  0  0  0  0  0  0  0  0  0
    3.3027   -3.3358    0.0000 C   0  0  0  0  0  0  0  0  0  0  0  0
    3.6706   -3.8606    0.0000 C   0  0  0  0  0  0  0  0  0  0  0  0
    4.0627   -2.6045    0.0000 C   0  0  0  0  0  0  0  0  0  0  0  0
    2.9176   -4.0689    0.0000 C   0  0  0  0  0  0  0  0  0  0  0  0
    3.2722   -4.7908    0.0000 C   0  0  0  0  0  0  0  0  0  0  0  0
    4.1572   -4.7768    0.0000 C   0  0  0  0  0  0  0  0  0  0  0  0
    4.5611   -4.0575    0.0000 C   0  0  0  0  0  0  0  0  0  0  0  0
    5.3602   -4.0601    0.0000 C   0  0  0  0  0  0  0  0  0  0  0  0
    5.7872   -3.3256    0.0000 O   0  0  0  0  0  0  0  0  0  0  0  0
    4.6677   -5.4861    0.0000 O   0  0  0  0  0  0  0  0  0  0  0  0
    2.0742   -4.0634    0.0000 C   0  0  0  0  0  0  0  0  0  0  0  0
    2.4616   -5.1457    0.0000 O   0  0  0  0  0  0  0  0  0  0  0  0
    1.6645   -4.7758    0.0000 C   0  0  0  0  0  0  0  0  0  0  0  0
    0.8343   -4.7819    0.0000 C   0  0  0  0  0  0  0  0  0  0  0  0
    0.2749   -5.4861    0.0000 O   0  0  0  0  0  0  0  0  0  0  0  0
    7.4500   -2.7758    0.0000 N   0  0  0  0  0  0  0  0  0  0  0  0
    8.1346   -3.2783    0.0000 C   0  0  0  0  0  0  0  0  0  0  0  0
    8.9358   -3.0040    0.0000 C   0  0  0  0  0  0  0  0  0  0  0  0
   10.4940   -2.5289    0.0000 C   0  0  0  0  0  0  0  0  0  0  0  0
    9.8739   -2.0081    0.0000 C   0  0  0  0  0  0  0  0  0  0  0  0
    9.5449   -3.5672    0.0000 C   0  0  0  0  0  0  0  0  0  0  0  0
   10.3251   -3.3033    0.0000 C   0  0  0  0  0  0  0  0  0  0  0  0
    3.4832   -1.2157    0.0000 C   0  0  0  0  0  0  0  0  0  0  0  0
    2.7495   -0.7946    0.0000 C   0  0  0  0  0  0  0  0  0  0  0  0
    1.9723   -0.7967    0.0000 C   0  0  0  0  0  0  0  0  0  0  0  0
    2.3620   -0.0994    0.0000 C   0  0  0  0  0  0  0  0  0  0  0  0
    9.0678   -2.2862    0.0000 C   0  0  0  0  0  0  0  0  0  0  0  0
    2.4777   -3.3358    0.0000 O   0  0  0  0  0  0  0  0  0  0  0  0
  1  2  1  0
  1  3  1  0
  1  6  1  0
  2 22  1  0
  3  5  2  0
  4  3  1  0
  4 30  1  0
  7  1  1  0
  8  9  2  0
  8 10  1  0
  9 28  1  0
 10 11  1  0
 10 25  2  0
 12 11  1  1
 12 13  1  0
 13 37  1  0
 14 15  1  0
 15 12  1  0
 16 17  1  0
 18 16  1  1
 18 19  1  0
 18 15  1  0
 19 20  1  0
 19 26  1  6
 20 21  2  0
 21 14  1  0
 21 22  1  0
 22 23  2  0
 24 20  1  0
 25 18  1  0
 26 27  1  0
 27 25  1  0
 28 27  2  0
 28 29  1  0
 30 31  2  0
 31 32  1  0
 31  5  1  0
 32 35  1  0
 32 41  2  0
 33 34  2  0
 35 36  2  0
 36 33  1  0
 37 38  1  0
 39 40  1  0
 39 38  1  0
 40 38  1  0
 41 34  1  0
 13 17  1  0
 15 42  1  1
M  END
$$$$
