
     RDKit          2D

 24 24  0  0  0  0  0  0  0  0999 V2000
   -6.4302    0.2615    0.0000 C   0  0  0  0  0  0  0  0  0  0  0  0
   -6.4302   -0.5634    0.0000 C   0  0  0  0  0  0  0  0  0  0  0  0
   -5.7158   -0.9759    0.0000 C   0  0  0  0  0  0  0  0  0  0  0  0
   -5.0013   -0.5634    0.0000 C   0  0  0  0  0  0  0  0  0  0  0  0
   -5.0013    0.2615    0.0000 C   0  0  0  0  0  0  0  0  0  0  0  0
   -5.7158    0.6740    0.0000 C   0  0  0  0  0  0  0  0  0  0  0  0
   -4.2867    0.6740    0.0000 O   0  0  0  0  0  0  0  0  0  0  0  0
   -3.5724    0.2615    0.0000 C   0  0  0  0  0  0  0  0  0  0  0  0
   -2.8579    0.6740    0.0000 C   0  0  0  0  0  0  0  0  0  0  0  0
   -2.1434    0.2615    0.0000 N   0  0  0  0  0  0  0  0  0  0  0  0
   -1.4290   -0.1509    0.0000 C   0  0  0  0  0  0  0  0  0  0  0  0
   -2.5559   -0.4529    0.0000 C   0  0  0  0  0  0  0  0  0  0  0  0
   -1.7309    0.9759    0.0000 C   0  0  0  0  0  0  0  0  0  0  0  0
   -0.7145    0.2615    0.0000 C   0  0  0  0  0  0  0  0  0  0  0  0
    0.0000   -0.1509    0.0000 C   0  0  0  0  0  0  0  0  0  0  0  0
    0.7144    0.2615    0.0000 C   0  0  0  0  0  0  0  0  0  0  0  0
    1.4288   -0.1509    0.0000 C   0  0  0  0  0  0  0  0  0  0  0  0
    2.1433    0.2615    0.0000 C   0  0  0  0  0  0  0  0  0  0  0  0
    2.8579   -0.1509    0.0000 C   0  0  0  0  0  0  0  0  0  0  0  0
    3.5722    0.2615    0.0000 C   0  0  0  0  0  0  0  0  0  0  0  0
    4.2867   -0.1509    0.0000 C   0  0  0  0  0  0  0  0  0  0  0  0
    5.0012    0.2615    0.0000 C   0  0  0  0  0  0  0  0  0  0  0  0
    5.7158   -0.1509    0.0000 C   0  0  0  0  0  0  0  0  0  0  0  0
    6.4302    0.2615    0.0000 C   0  0  0  0  0  0  0  0  0  0  0  0
 10 12  1  0
  5  6  1  0
 10 13  1  0
  6  1  2  0
 11 14  1  0
  2  3  2  0
 14 15  1  0
  5  7  1  0
 15 16  1  0
 16 17  1  0
  7  8  1  0
 17 18  1  0
  3  4  1  0
 18 19  1  0
  8  9  1  0
 19 20  1  0
  1  2  1  0
 20 21  1  0
  9 10  1  0
 21 22  1  0
  4  5  2  0
 22 23  1  0
 10 11  1  0
 23 24  1  0
M  CHG  1  10   1
M  END
$$$$
