
     RDKit          2D

  5  4  0  0  0  0  0  0  0  0999 V2000
    3.8893   -6.6000    0.0000 O   0  0  0  0  0  0  0  0  0  0  0  0
    3.8893   -5.7750    0.0000 S   0  0  0  0  0  0  0  0  0  0  0  0
    3.8893   -4.9500    0.0000 O   0  0  0  0  0  0  0  0  0  0  0  0
    4.7143   -5.7750    0.0000 O   0  0  0  0  0  0  0  0  0  0  0  0
    3.0643   -5.7750    0.0000 O   0  0  0  0  0  0  0  0  0  0  0  0
  1  2  1  0
  2  3  2  0
  2  4  2  0
  2  5  1  0
M  CHG  2   1  -1   5  -1
M  END
$$$$
