
     RDKit          2D

 36 38  0  0  1  0  0  0  0  0999 V2000
   -1.9354   -0.5812    0.0000 C   0  0  0  0  0  0  0  0  0  0  0  0
   -1.9354    0.2438    0.0000 C   0  0  0  0  0  0  0  0  0  0  0  0
   -2.6499    0.6563    0.0000 C   0  0  0  0  0  0  0  0  0  0  0  0
   -3.3644    0.2438    0.0000 N   0  0  0  0  0  0  0  0  0  0  0  0
   -4.0788    0.6563    0.0000 C   0  0  0  0  0  0  0  0  0  0  0  0
   -4.0788    1.4813    0.0000 N   0  0  0  0  0  0  0  0  0  0  0  0
   -4.7933    1.8938    0.0000 C   0  0  0  0  0  0  0  0  0  0  0  0
   -5.5078    1.4813    0.0000 C   0  0  0  0  0  0  0  0  0  0  0  0
   -5.5078    0.6563    0.0000 C   0  0  0  0  0  0  0  0  0  0  0  0
   -4.7933    0.2438    0.0000 N   0  0  0  0  0  0  0  0  0  0  0  0
   -6.2222    0.2438    0.0000 C   0  0  0  0  0  0  0  0  0  0  0  0
   -6.9759    0.5794    0.0000 C   0  0  0  0  0  0  0  0  0  0  0  0
   -7.5279   -0.0337    0.0000 N   0  0  0  0  0  0  0  0  0  0  0  0
   -7.1154   -0.7482    0.0000 N   0  0  0  0  0  0  0  0  0  0  0  0
   -6.3085   -0.5766    0.0000 C   0  0  0  0  0  0  0  0  0  0  0  0
   -5.6954   -1.1287    0.0000 C   0  0  0  0  0  0  0  0  0  0  0  0
   -4.9108   -0.8737    0.0000 C   0  0  0  0  0  0  0  0  0  0  0  0
   -4.2977   -1.4258    0.0000 C   0  0  0  0  0  0  0  0  0  0  0  0
   -4.4692   -2.2327    0.0000 C   0  0  0  0  0  0  0  0  0  0  0  0
   -5.2538   -2.4877    0.0000 C   0  0  0  0  0  0  0  0  0  0  0  0
   -5.8669   -1.9356    0.0000 C   0  0  0  0  0  0  0  0  0  0  0  0
   -6.6515   -2.1906    0.0000 F   0  0  0  0  0  0  0  0  0  0  0  0
   -5.4253   -3.2947    0.0000 N   0  0  0  0  0  0  0  0  0  0  0  0
   -4.8122   -3.8467    0.0000 S   0  0  0  0  0  0  0  0  0  0  0  0
   -4.2602   -3.2336    0.0000 O   0  0  0  0  0  0  0  0  0  0  0  0
   -5.3643   -4.4598    0.0000 O   0  0  0  0  0  0  0  0  0  0  0  0
   -4.1992   -4.3987    0.0000 C   0  0  0  0  0  0  0  0  0  0  0  0
   -3.5130   -1.1708    0.0000 Cl  0  0  0  0  0  0  0  0  0  0  0  0
   -8.3484    0.0525    0.0000 C   0  0  0  0  0  0  0  0  0  0  0  0
   -8.8334   -0.6149    0.0000 C   0  0  0  0  0  0  0  0  0  0  0  0
   -8.6840    0.8062    0.0000 C   0  0  0  0  0  0  0  0  0  0  0  0
   -1.2209    0.6563    0.0000 N   0  0  0  0  0  0  0  0  0  0  0  0
   -0.5065    0.2438    0.0000 C   0  0  0  0  0  0  0  0  0  0  0  0
   -0.5065   -0.5812    0.0000 O   0  0  0  0  0  0  0  0  0  0  0  0
    0.2080    0.6563    0.0000 O   0  0  0  0  0  0  0  0  0  0  0  0
    0.9225    0.2438    0.0000 C   0  0  0  0  0  0  0  0  0  0  0  0
  2  1  1  1
  2  3  1  0
  3  4  1  0
  4  5  1  0
  5  6  2  0
  6  7  1  0
  7  8  2  0
  8  9  1  0
  9 10  2  0
  5 10  1  0
  9 11  1  0
 11 12  2  0
 12 13  1  0
 13 14  1  0
 14 15  2  0
 11 15  1  0
 15 16  1  0
 16 17  2  0
 17 18  1  0
 18 19  2  0
 19 20  1  0
 20 21  2  0
 16 21  1  0
 21 22  1  0
 20 23  1  0
 23 24  1  0
 24 25  2  0
 24 26  2  0
 24 27  1  0
 18 28  1  0
 13 29  1  0
 29 30  1  0
 29 31  1  0
  2 32  1  0
 32 33  1  0
 33 34  2  0
 33 35  1  0
 35 36  1  0
M  END
$$$$
