
     RDKit          2D

 36 41  0  0  0  0  0  0  0  0999 V2000
    7.0651    1.9712    0.0000 C   0  0  0  0  0  0  0  0  0  0  0  0
    4.4513    4.4037    0.0000 C   0  0  0  0  0  0  0  0  0  0  0  0
    3.4115    4.6127    0.0000 C   0  0  0  0  0  0  0  0  0  0  0  0
    6.2834    1.7077    0.0000 C   0  0  0  0  0  0  0  0  0  0  0  0
    0.7440    2.1254    0.0000 C   0  0  0  0  0  0  0  0  0  0  0  0
    1.5654    2.0482    0.0000 C   0  0  0  0  0  0  0  0  0  0  0  0
    7.5530    4.3977    0.0000 C   0  0  0  0  0  0  0  0  0  0  0  0
    8.0095    3.0436    0.0000 C   0  0  0  0  0  0  0  0  0  0  0  0
    6.7712    4.1341    0.0000 C   0  0  0  0  0  0  0  0  0  0  0  0
    7.2278    2.7801    0.0000 C   0  0  0  0  0  0  0  0  0  0  0  0
    9.5730    3.5708    0.0000 C   0  0  0  0  0  0  0  0  0  0  0  0
    9.1165    4.9248    0.0000 C   0  0  0  0  0  0  0  0  0  0  0  0
   10.3548    3.8344    0.0000 C   0  0  0  0  0  0  0  0  0  0  0  0
    9.8983    5.1884    0.0000 C   0  0  0  0  0  0  0  0  0  0  0  0
    0.8777    3.5481    0.0000 C   0  0  0  0  0  0  0  0  0  0  0  0
    4.8825    1.9893    0.0000 C   0  0  0  0  0  0  0  0  0  0  0  0
    5.2077    3.6070    0.0000 C   0  0  0  0  0  0  0  0  0  0  0  0
   -0.4212    2.9525    0.0000 C   0  0  0  0  0  0  0  0  0  0  0  0
    0.4002    2.8753    0.0000 C   0  0  0  0  0  0  0  0  0  0  0  0
    5.6642    2.2529    0.0000 C   0  0  0  0  0  0  0  0  0  0  0  0
    8.1721    3.8524    0.0000 C   0  0  0  0  0  0  0  0  0  0  0  0
    2.0429    2.7210    0.0000 C   0  0  0  0  0  0  0  0  0  0  0  0
    4.2633    2.5346    0.0000 C   0  0  0  0  0  0  0  0  0  0  0  0
    4.4259    3.3434    0.0000 C   0  0  0  0  0  0  0  0  0  0  0  0
    1.6991    3.4709    0.0000 C   0  0  0  0  0  0  0  0  0  0  0  0
    5.8269    3.0617    0.0000 C   0  0  0  0  0  0  0  0  0  0  0  0
    2.8624    2.8162    0.0000 C   0  0  0  0  0  0  0  0  0  0  0  0
    3.4816    2.2710    0.0000 C   0  0  0  0  0  0  0  0  0  0  0  0
    3.0250    3.6251    0.0000 C   0  0  0  0  0  0  0  0  0  0  0  0
    3.8068    3.8886    0.0000 C   0  0  0  0  0  0  0  0  0  0  0  0
   -1.2426    3.0297    0.0000 N   0  0  0  0  0  0  0  0  0  0  0  0
    2.3061    4.0297    0.0000 N   0  0  0  0  0  0  0  0  0  0  0  0
    8.9539    4.1160    0.0000 N   0  0  0  0  0  0  0  0  0  0  0  0
    6.6086    3.3253    0.0000 N   0  0  0  0  0  0  0  0  0  0  0  0
    3.3189    1.4622    0.0000 O   0  0  0  0  0  0  0  0  0  0  0  0
   10.5174    4.6432    0.0000 O   0  0  0  0  0  0  0  0  0  0  0  0
  4  1  1  0
  6  5  2  0
  9  7  1  0
 10  8  1  0
 13 11  1  0
 14 12  1  0
 19  5  1  0
 19 15  2  0
 19 18  1  0
 20  4  1  0
 20 16  1  0
 21  7  1  0
 21  8  1  0
 22  6  1  0
 23 16  2  0
 24 17  2  0
 24 23  1  0
 25 15  1  0
 25 22  2  0
 26 17  1  0
 26 20  2  0
 27 22  1  0
 28 23  1  0
 28 27  1  0
 29 27  2  0
 30  2  1  0
 30  3  1  0
 30 24  1  0
 30 29  1  0
 31 18  3  0
 32 25  1  0
 32 29  1  0
 33 11  1  0
 33 12  1  0
 33 21  1  0
 34  9  1  0
 34 10  1  0
 34 26  1  0
 35 28  2  0
 36 13  1  0
 36 14  1  0
M  END
$$$$
