
     RDKit          2D

 54 60  0  0  1  0  0  0  0  0999 V2000
    8.2225   -6.5717    0.0000 C   0  0  0  0  0  0  0  0  0  0  0  0
    3.5954   -5.0748    0.0000 C   0  0  0  0  0  0  0  0  0  0  0  0
    2.9555   -4.0992    0.0000 C   0  0  0  0  0  0  0  0  0  0  0  0
    4.5710   -4.4350    0.0000 C   0  0  0  0  0  0  0  0  0  0  0  0
   11.4300   -2.4900    0.0000 C   0  0  0  0  0  0  0  0  0  0  0  0
    7.5882   -6.0441    0.0000 C   0  0  0  0  0  0  0  0  0  0  0  0
    5.3861    0.0301    0.0000 C   0  0  0  0  0  0  0  0  0  0  0  0
    4.6027   -0.2284    0.0000 C   0  0  0  0  0  0  0  0  0  0  0  0
    6.0017   -0.5192    0.0000 C   0  0  0  0  0  0  0  0  0  0  0  0
    4.4348   -1.0361    0.0000 C   0  0  0  0  0  0  0  0  0  0  0  0
    6.7852   -0.2607    0.0000 C   0  0  0  0  0  0  0  0  0  0  0  0
   10.1988   -1.3915    0.0000 C   0  0  0  0  0  0  0  0  0  0  0  0
    3.3479   -8.2311    0.0000 C   0  0  0  0  0  0  0  0  0  0  0  0
    4.1701   -8.2994    0.0000 C   0  0  0  0  0  0  0  0  0  0  0  0
    9.5833   -0.8423    0.0000 C   0  0  0  0  0  0  0  0  0  0  0  0
    2.8679   -1.5531    0.0000 C   0  0  0  0  0  0  0  0  0  0  0  0
    9.2475   -2.4577    0.0000 C   0  0  0  0  0  0  0  0  0  0  0  0
    6.6972   -3.3965    0.0000 C   0  0  0  0  0  0  0  0  0  0  0  0
    6.2866   -6.9639    0.0000 C   0  0  0  0  0  0  0  0  0  0  0  0
    5.4980   -2.9424    0.0000 C   0  0  0  0  0  0  0  0  0  0  0  0
    3.6513   -1.2946    0.0000 C   0  0  0  0  0  0  0  0  0  0  0  0
    6.8142   -6.3296    0.0000 C   0  0  0  0  0  0  0  0  0  0  0  0
   10.0309   -2.1993    0.0000 C   0  0  0  0  0  0  0  0  0  0  0  0
    6.2815   -2.6839    0.0000 C   0  0  0  0  0  0  0  0  0  0  0  0
    3.8182   -7.5532    0.0000 C   0  0  0  0  0  0  0  0  0  0  0  0
    8.7998   -1.1007    0.0000 C   0  0  0  0  0  0  0  0  0  0  0  0
    7.4007   -0.8100    0.0000 C   0  0  0  0  0  0  0  0  0  0  0  0
    8.6319   -1.9085    0.0000 C   0  0  0  0  0  0  0  0  0  0  0  0
    6.1480   -4.0121    0.0000 C   0  0  0  0  0  0  0  0  0  0  0  0
    3.4834   -2.1023    0.0000 C   0  0  0  0  0  0  0  0  0  0  0  0
    3.9311   -3.4593    0.0000 C   0  0  0  0  0  0  0  0  0  0  0  0
    6.3649   -4.8080    0.0000 C   0  0  0  0  0  0  0  0  0  0  0  0
    7.2329   -1.6177    0.0000 C   0  0  0  0  0  0  0  0  0  0  0  0
    4.5467   -4.0086    0.0000 C   0  0  0  0  0  0  0  0  0  0  0  0
    5.1789   -6.1215    0.0000 C   0  0  0  0  0  0  0  0  0  0  0  0
    2.5321   -3.1685    0.0000 C   0  0  0  0  0  0  0  0  0  0  0  0
    3.7632   -4.2671    0.0000 C   0  0  0  0  0  0  0  0  0  0  0  0
    6.0011   -6.1899    0.0000 C   0  0  0  0  0  0  0  0  0  0  0  0
    8.1842   -0.5515    0.0000 N   0  0  0  0  0  0  0  0  0  0  0  0
    7.8484   -2.1670    0.0000 N   0  0  0  0  0  0  0  0  0  0  0  0
    3.1477   -3.7178    0.0000 N   0  0  0  0  0  0  0  0  0  0  0  0
    5.7841   -5.3939    0.0000 N   0  0  0  0  0  0  0  0  0  0  0  0
    4.7087   -6.7994    0.0000 N   0  0  0  0  0  0  0  0  0  0  0  0
    5.3302   -3.7501    0.0000 N   0  0  0  0  0  0  0  0  0  0  0  0
    7.1628   -5.0181    0.0000 O   0  0  0  0  0  0  0  0  0  0  0  0
    4.8857   -4.7607    0.0000 O   0  0  0  0  0  0  0  0  0  0  0  0
    4.8270   -5.3754    0.0000 O   0  0  0  0  0  0  0  0  0  0  0  0
    1.7486   -3.4270    0.0000 O   0  0  0  0  0  0  0  0  0  0  0  0
    3.0643   -6.6627    0.0000 O   0  0  0  0  0  0  0  0  0  0  0  0
    3.9548   -5.9089    0.0000 O   0  0  0  0  0  0  0  0  0  0  0  0
   10.6465   -2.7485    0.0000 O   0  0  0  0  0  0  0  0  0  0  0  0
    6.4494   -1.8762    0.0000 O   0  0  0  0  0  0  0  0  0  0  0  0
    2.7000   -2.3608    0.0000 O   0  0  0  0  0  0  0  0  0  0  0  0
    3.8865   -6.7310    0.0000 S   0  0  0  0  0  0  0  0  0  0  0  0
  6  1  2  3
  8  7  1  0
  9  7  1  0
 10  8  1  0
 11  9  1  0
 14 13  1  0
 15 12  2  0
 21 10  1  1
 21 16  1  0
 22  6  1  6
 22 19  1  0
 23 12  1  0
 23 17  2  0
 24 18  1  6
 24 20  1  0
 25 13  1  0
 25 14  1  0
 26 15  1  0
 27 11  1  0
 28 17  1  0
 28 26  1  0
 29 18  1  0
 30 16  1  1
 30 21  1  0
 29 32  1  1
 33 27  2  0
 34 31  1  0
 37  2  1  0
 37  3  1  0
 37  4  1  0
 31 37  1  1
 38 19  1  0
 38 22  1  0
 38 35  1  0
 39 26  2  0
 39 27  1  0
 40 28  2  0
 40 33  1  0
 41 31  1  0
 41 36  2  0
 42 32  2  3
 38 42  1  1
 43 35  2  3
 44 20  1  0
 44 29  1  0
 44 34  1  0
 32 45  1  0
 46 34  2  0
 47 35  1  0
 36 48  1  0
 51  5  1  0
 51 23  1  0
 52 24  1  0
 52 33  1  0
 53 30  1  0
 53 36  1  0
 54 25  1  0
 43 54  1  0
 54 49  2  0
 54 50  2  0
M  END
$$$$
