
     RDKit          2D

 19 21  0  0  0  0  0  0  0  0999 V2000
    1.2674   -2.6117    0.0000 O   0  0  0  0  0  0  0  0  0  0  0  0
   -1.0502    0.3361    0.0000 C   0  0  0  0  0  0  0  0  0  0  0  0
   -0.6560   -1.2712    0.0000 C   0  0  0  0  0  0  0  0  0  0  0  0
   -0.4425   -0.4744    0.0000 C   0  0  0  0  0  0  0  0  0  0  0  0
   -2.0848   -2.0961    0.0000 C   0  0  0  0  0  0  0  0  0  0  0  0
   -2.4974   -1.3817    0.0000 C   0  0  0  0  0  0  0  0  0  0  0  0
    1.0685   -1.1004    0.0000 C   0  0  0  0  0  0  0  0  0  0  0  0
    0.8550   -1.8973    0.0000 C   0  0  0  0  0  0  0  0  0  0  0  0
   -0.9640    1.1564    0.0000 C   0  0  0  0  0  0  0  0  0  0  0  0
   -1.8039    0.6715    0.0000 C   0  0  0  0  0  0  0  0  0  0  0  0
   -0.8696   -2.0681    0.0000 C   0  0  0  0  0  0  0  0  0  0  0  0
    1.7829   -0.6879    0.0000 C   0  0  0  0  0  0  0  0  0  0  0  0
    1.7829    0.1369    0.0000 C   0  0  0  0  0  0  0  0  0  0  0  0
    2.4974    0.5493    0.0000 C   0  0  0  0  0  0  0  0  0  0  0  0
    1.0685    0.5493    0.0000 C   0  0  0  0  0  0  0  0  0  0  0  0
    2.4974    1.3742    0.0000 C   0  0  0  0  0  0  0  0  0  0  0  0
    1.0685    1.3742    0.0000 C   0  0  0  0  0  0  0  0  0  0  0  0
    1.7829    1.7867    0.0000 C   0  0  0  0  0  0  0  0  0  0  0  0
    1.7829    2.6117    0.0000 C   0  0  0  0  0  0  0  0  0  0  0  0
  1  8  2  0
  2  3  1  0
  2  4  1  0
  2  9  1  0
  2 10  1  0
  3  5  1  0
  3  8  1  0
  3 11  1  0
  4  6  1  0
  4  7  1  0
  5  6  1  0
  7  8  1  0
  7 12  2  0
 12 13  1  0
 13 14  2  0
 13 15  1  0
 14 16  1  0
 15 17  2  0
 16 18  2  0
 17 18  1  0
 18 19  1  0
M  END
$$$$
