
     RDKit          2D

 65 73  0  0  0  0  0  0  0  0999 V2000
   -7.2728    2.2804    0.0000 C   0  0  0  0  0  0  0  0  0  0  0  0
   -5.8798    2.5987    0.0000 C   0  0  0  0  0  0  0  0  0  0  0  0
   -6.6928   -0.3617    0.0000 C   0  0  0  0  0  0  0  0  0  0  0  0
    7.3085   -2.9859    0.0000 C   0  0  0  0  0  0  0  0  0  0  0  0
   -9.0867    0.5965    0.0000 C   0  0  0  0  0  0  0  0  0  0  0  0
    9.0867    2.9859    0.0000 C   0  0  0  0  0  0  0  0  0  0  0  0
    8.6761   -0.7723    0.0000 C   0  0  0  0  0  0  0  0  0  0  0  0
    8.9191    0.0160    0.0000 C   0  0  0  0  0  0  0  0  0  0  0  0
    7.8718   -0.9561    0.0000 C   0  0  0  0  0  0  0  0  0  0  0  0
    8.3578    0.6206    0.0000 C   0  0  0  0  0  0  0  0  0  0  0  0
    7.3105   -0.3514    0.0000 C   0  0  0  0  0  0  0  0  0  0  0  0
   -5.4478   -1.1436    0.0000 C   0  0  0  0  0  0  0  0  0  0  0  0
    1.9657    1.3659    0.0000 C   0  0  0  0  0  0  0  0  0  0  0  0
   -1.7571    2.0238    0.0000 C   0  0  0  0  0  0  0  0  0  0  0  0
    1.1408    1.3533    0.0000 C   0  0  0  0  0  0  0  0  0  0  0  0
   -2.5820    2.0113    0.0000 C   0  0  0  0  0  0  0  0  0  0  0  0
   -4.6435   -0.9598    0.0000 C   0  0  0  0  0  0  0  0  0  0  0  0
    5.1769   -1.0223    0.0000 C   0  0  0  0  0  0  0  0  0  0  0  0
    1.9874   -0.0628    0.0000 C   0  0  0  0  0  0  0  0  0  0  0  0
   -0.5089    1.3282    0.0000 C   0  0  0  0  0  0  0  0  0  0  0  0
   -1.3121   -0.1130    0.0000 C   0  0  0  0  0  0  0  0  0  0  0  0
    3.6886    1.3451    0.0000 C   0  0  0  0  0  0  0  0  0  0  0  0
    6.4400   -0.5906    0.0000 C   0  0  0  0  0  0  0  0  0  0  0  0
    6.2321   -2.0460    0.0000 C   0  0  0  0  0  0  0  0  0  0  0  0
    0.7609   -0.7960    0.0000 C   0  0  0  0  0  0  0  0  0  0  0  0
   -6.4844    2.0374    0.0000 C   0  0  0  0  0  0  0  0  0  0  0  0
   -5.8711   -0.4354    0.0000 C   0  0  0  0  0  0  0  0  0  0  0  0
    5.9653   -1.2653    0.0000 C   0  0  0  0  0  0  0  0  0  0  0  0
    7.5535    0.4369    0.0000 C   0  0  0  0  0  0  0  0  0  0  0  0
   -1.3338    1.3157    0.0000 C   0  0  0  0  0  0  0  0  0  0  0  0
    2.3890    0.6578    0.0000 C   0  0  0  0  0  0  0  0  0  0  0  0
    1.1625   -0.0753    0.0000 C   0  0  0  0  0  0  0  0  0  0  0  0
    0.7392    0.6327    0.0000 C   0  0  0  0  0  0  0  0  0  0  0  0
   -1.7354    0.5950    0.0000 C   0  0  0  0  0  0  0  0  0  0  0  0
   -0.0856    0.6201    0.0000 C   0  0  0  0  0  0  0  0  0  0  0  0
   -2.9836    1.2906    0.0000 C   0  0  0  0  0  0  0  0  0  0  0  0
    3.2139    0.6703    0.0000 C   0  0  0  0  0  0  0  0  0  0  0  0
   -4.5698   -0.1381    0.0000 C   0  0  0  0  0  0  0  0  0  0  0  0
    5.1643   -0.1974    0.0000 C   0  0  0  0  0  0  0  0  0  0  0  0
   -0.4872   -0.1004    0.0000 C   0  0  0  0  0  0  0  0  0  0  0  0
   -6.3006    1.2331    0.0000 C   0  0  0  0  0  0  0  0  0  0  0  0
    6.9922    1.0415    0.0000 C   0  0  0  0  0  0  0  0  0  0  0  0
   -2.5603    0.5825    0.0000 C   0  0  0  0  0  0  0  0  0  0  0  0
    4.4896    0.2772    0.0000 C   0  0  0  0  0  0  0  0  0  0  0  0
   -3.8617    0.2851    0.0000 C   0  0  0  0  0  0  0  0  0  0  0  0
    6.1880    0.8577    0.0000 C   0  0  0  0  0  0  0  0  0  0  0  0
   -5.5122    0.9901    0.0000 C   0  0  0  0  0  0  0  0  0  0  0  0
   -7.6937    0.9148    0.0000 C   0  0  0  0  0  0  0  0  0  0  0  0
    8.0395    2.0137    0.0000 C   0  0  0  0  0  0  0  0  0  0  0  0
    4.4770    1.1021    0.0000 N   0  0  0  0  0  0  0  0  0  0  0  0
   -3.7879    1.1068    0.0000 N   0  0  0  0  0  0  0  0  0  0  0  0
    3.7089    0.0103    0.0000 N   0  0  0  0  0  0  0  0  0  0  0  0
   -3.1030   -0.0388    0.0000 N   0  0  0  0  0  0  0  0  0  0  0  0
   -6.9053    0.6718    0.0000 N   0  0  0  0  0  0  0  0  0  0  0  0
    7.2352    1.8299    0.0000 N   0  0  0  0  0  0  0  0  0  0  0  0
    5.9450    0.0693    0.0000 N   0  0  0  0  0  0  0  0  0  0  0  0
   -5.3285    0.1859    0.0000 N   0  0  0  0  0  0  0  0  0  0  0  0
    5.6267    1.4623    0.0000 O   0  0  0  0  0  0  0  0  0  0  0  0
   -4.9076    1.5514    0.0000 O   0  0  0  0  0  0  0  0  0  0  0  0
   -7.8775    1.7191    0.0000 O   0  0  0  0  0  0  0  0  0  0  0  0
    8.6008    1.4090    0.0000 O   0  0  0  0  0  0  0  0  0  0  0  0
    7.0416   -2.2052    0.0000 O   0  0  0  0  0  0  0  0  0  0  0  0
   -8.2983    0.3535    0.0000 O   0  0  0  0  0  0  0  0  0  0  0  0
    8.2824    2.8021    0.0000 O   0  0  0  0  0  0  0  0  0  0  0  0
   -0.0639   -0.8085    0.0000 O   0  0  0  0  0  0  0  0  0  0  0  0
  8  7  2  0
  9  7  1  0
 10  8  1  0
 11  9  2  0
 15 13  2  0
 16 14  1  0
 17 12  1  0
 26  1  1  0
 26  2  1  0
 27  3  1  6
 27 12  1  0
 28 18  1  0
 28 23  1  0
 28 24  1  1
 29 10  2  0
 29 11  1  0
 30 14  2  0
 30 20  1  0
 31 13  1  0
 31 19  2  0
 32 19  1  0
 32 25  1  0
 33 15  1  0
 33 32  2  0
 34 21  1  0
 34 30  1  0
 35 20  2  0
 35 33  1  0
 36 16  2  0
 37 22  2  0
 37 31  1  0
 38 17  1  0
 39 18  1  0
 40 21  2  0
 40 35  1  0
 41 26  1  0
 42 29  1  0
 43 34  2  0
 43 36  1  0
 39 44  1  1
 38 45  1  6
 46 42  1  0
 47 41  1  0
 50 22  1  0
 50 44  2  0
 51 36  1  0
 51 45  2  0
 52 37  1  0
 52 44  1  0
 53 43  1  0
 53 45  1  0
 41 54  1  1
 54 48  2  3
 42 55  1  6
 55 49  2  3
 56 23  1  0
 56 39  1  0
 56 46  1  0
 57 27  1  0
 57 38  1  0
 57 47  1  0
 58 46  2  0
 59 47  2  0
 48 60  1  0
 49 61  1  0
 62  4  1  0
 62 24  1  0
 63  5  1  0
 63 48  1  0
 64  6  1  0
 64 49  1  0
 65 25  1  0
 65 40  1  0
M  END
$$$$
