
     RDKit          2D

 28 31  0  0  1  0  0  0  0  0999 V2000
    8.3346   -4.3826    0.0000 C   0  0  0  0  0  0  0  0  0  0  0  0
    8.3346   -5.2076    0.0000 C   0  0  0  0  0  0  0  0  0  0  0  0
    7.6399   -3.9484    0.0000 C   0  0  0  0  0  0  0  0  0  0  0  0
    8.3346   -3.5576    0.0000 C   0  0  0  0  0  0  0  0  0  0  0  0
    7.6399   -5.6418    0.0000 C   0  0  0  0  0  0  0  0  0  0  0  0
    6.9017   -4.3826    0.0000 C   0  0  0  0  0  0  0  0  0  0  0  0
    6.9017   -5.2076    0.0000 C   0  0  0  0  0  0  0  0  0  0  0  0
    7.6399   -6.4668    0.0000 C   0  0  0  0  0  0  0  0  0  0  0  0
    6.1636   -3.9484    0.0000 O   0  0  0  0  0  0  0  0  0  0  0  0
    6.1636   -5.6418    0.0000 C   0  0  0  0  0  0  0  0  0  0  0  0
    6.9017   -6.0760    0.0000 F   0  0  0  0  0  0  0  0  0  0  0  0
    6.9017   -6.9010    0.0000 C   0  0  0  0  0  0  0  0  0  0  0  0
    6.1636   -6.4668    0.0000 C   0  0  0  0  0  0  0  0  0  0  0  0
    5.4254   -5.2076    0.0000 C   0  0  0  0  0  0  0  0  0  0  0  0
    6.1636   -4.8168    0.0000 C   0  0  0  0  0  0  0  0  0  0  0  0
    5.4254   -6.9010    0.0000 C   0  0  0  0  0  0  0  0  0  0  0  0
    4.7307   -5.6418    0.0000 C   0  0  0  0  0  0  0  0  0  0  0  0
    4.7307   -6.4668    0.0000 C   0  0  0  0  0  0  0  0  0  0  0  0
    3.9925   -6.9010    0.0000 O   0  0  0  0  0  0  0  0  0  0  0  0
    9.1192   -5.4626    0.0000 C   0  0  0  0  0  0  0  0  0  0  0  0
    9.6041   -4.7951    0.0000 C   0  0  0  0  0  0  0  0  0  0  0  0
    9.1193   -4.1277    0.0000 C   0  0  0  0  0  0  0  0  0  0  0  0
    9.1148   -3.3000    0.0000 C   0  0  0  0  0  0  0  0  0  0  0  0
    9.8269   -2.8836    0.0000 C   0  0  0  0  0  0  0  0  0  0  0  0
    8.3980   -2.8914    0.0000 O   0  0  0  0  0  0  0  0  0  0  0  0
   10.5437   -3.2921    0.0000 Cl  0  0  0  0  0  0  0  0  0  0  0  0
    9.9179   -3.9374    0.0000 O   0  0  0  0  0  0  0  0  0  0  0  0
   10.4291   -4.7952    0.0000 C   0  0  0  0  0  0  0  0  0  0  0  0
  1  3  1  0
  1  4  1  1
  2  5  1  0
  3  6  1  0
  5  7  1  0
  5  8  1  6
  6  9  1  1
  7 10  1  0
  7 11  1  6
  8 12  1  0
 10 13  1  0
 10 14  1  0
 10 15  1  1
 13 16  2  0
 14 17  2  0
 16 18  1  0
 18 19  2  0
  6  7  1  0
 12 13  1  0
 17 18  1  0
  2 20  1  1
  1  2  1  0
 21 20  1  0
 22  1  1  0
 22 21  1  0
 22 23  1  0
 23 24  1  0
 23 25  2  0
 24 26  1  0
 22 27  1  6
 21 28  1  1
M  END
$$$$
