
     RDKit          2D

 34 36  0  0  1  0  0  0  0  0999 V2000
   11.3948    0.1634    0.0000 O   0  0  0  0  0  0  0  0  0  0  0  0
    9.2379   -0.2205    0.0000 O   0  0  0  0  0  0  0  0  0  0  0  0
    4.9509   -1.0455    0.0000 O   0  0  0  0  0  0  0  0  0  0  0  0
    2.0930   -0.2205    0.0000 O   0  0  0  0  0  0  0  0  0  0  0  0
    2.8075    1.0170    0.0000 O   0  0  0  0  0  0  0  0  0  0  0  0
    2.0930   -2.6956    0.0000 O   0  0  0  0  0  0  0  0  0  0  0  0
    3.5220   -2.6956    0.0000 O   0  0  0  0  0  0  0  0  0  0  0  0
    9.9524    1.0170    0.0000 N   0  0  0  0  0  0  0  0  0  0  0  0
    9.9524    2.6670    0.0000 N   0  0  0  0  0  0  0  0  0  0  0  0
    7.8089    1.4295    0.0000 N   0  0  0  0  0  0  0  0  0  0  0  0
   11.4044    2.6957    0.0000 N   0  0  0  0  0  0  0  0  0  0  0  0
   12.1519    1.4123    0.0000 N   0  0  0  0  0  0  0  0  0  0  0  0
    4.2365    0.1920    0.0000 N   0  0  0  0  0  0  0  0  0  0  0  0
   12.8648    2.6869    0.0000 N   0  0  0  0  0  0  0  0  0  0  0  0
    9.2379    1.4295    0.0000 C   0  0  0  0  0  0  0  0  0  0  0  0
    9.2379    2.2545    0.0000 C   0  0  0  0  0  0  0  0  0  0  0  0
    8.5234    1.0170    0.0000 C   0  0  0  0  0  0  0  0  0  0  0  0
   10.6668    1.4295    0.0000 C   0  0  0  0  0  0  0  0  0  0  0  0
   10.6668    2.2545    0.0000 C   0  0  0  0  0  0  0  0  0  0  0  0
   11.4044    0.9884    0.0000 C   0  0  0  0  0  0  0  0  0  0  0  0
    9.9524    0.1920    0.0000 C   0  0  0  0  0  0  0  0  0  0  0  0
    7.0944    1.0170    0.0000 C   0  0  0  0  0  0  0  0  0  0  0  0
   12.1519    2.2717    0.0000 C   0  0  0  0  0  0  0  0  0  0  0  0
    6.3799    1.4295    0.0000 C   0  0  0  0  0  0  0  0  0  0  0  0
    7.0944    0.1920    0.0000 C   0  0  0  0  0  0  0  0  0  0  0  0
    3.5220   -0.2205    0.0000 C   0  0  0  0  0  0  0  0  0  0  0  0
    3.5220   -1.0455    0.0000 C   0  0  0  0  0  0  0  0  0  0  0  0
    5.6655    0.1920    0.0000 C   0  0  0  0  0  0  0  0  0  0  0  0
    5.6655    1.0170    0.0000 C   0  0  0  0  0  0  0  0  0  0  0  0
    6.3799   -0.2205    0.0000 C   0  0  0  0  0  0  0  0  0  0  0  0
    4.9509   -0.2205    0.0000 C   0  0  0  0  0  0  0  0  0  0  0  0
    2.8075   -1.4581    0.0000 C   0  0  0  0  0  0  0  0  0  0  0  0
    2.8075    0.1920    0.0000 C   0  0  0  0  0  0  0  0  0  0  0  0
    2.8075   -2.2831    0.0000 C   0  0  0  0  0  0  0  0  0  0  0  0
  1 20  2  0
  2 21  2  0
  3 31  2  0
  4 33  1  0
  5 33  2  0
  6 34  1  0
  7 34  2  0
  8 15  1  0
  8 18  1  0
  8 21  1  0
  9 16  1  0
  9 19  1  0
 10 17  1  0
 10 22  1  0
 11 19  1  0
 11 23  1  0
 12 20  1  0
 12 23  2  0
 26 13  1  0
 13 31  1  0
 14 23  1  0
 15 16  1  0
 15 17  1  1
 18 19  2  0
 18 20  1  0
 22 24  2  0
 22 25  1  0
 24 29  1  0
 25 30  2  0
 26 27  1  1
 26 33  1  0
 27 32  1  0
 28 29  2  0
 28 30  1  0
 28 31  1  0
 32 34  1  0
M  END
$$$$
