
     RDKit          2D

 41 47  0  0  0  0  0  0  0  0999 V2000
    1.5366    1.8710    0.0000 O   0  0  0  0  0  0  0  0  0  0  0  0
    2.1936    2.0821    0.0000 O   0  0  0  0  0  0  0  0  0  0  0  0
    0.1524    0.1936    0.0000 O   0  0  0  0  0  0  0  0  0  0  0  0
    4.2228    0.4046    0.0000 O   0  0  0  0  0  0  0  0  0  0  0  0
   -1.8064    1.8475    0.0000 O   0  0  0  0  0  0  0  0  0  0  0  0
    2.1936    0.6980    0.0000 N   0  0  0  0  0  0  0  0  0  0  0  0
    3.5894    1.4721    0.0000 N   0  0  0  0  0  0  0  0  0  0  0  0
   -0.4106    1.9882    0.0000 N   0  0  0  0  0  0  0  0  0  0  0  0
   -0.6334   -0.2522    0.0000 N   0  0  0  0  0  0  0  0  0  0  0  0
   -3.3196   -2.7624    0.0000 N   0  0  0  0  0  0  0  0  0  0  0  0
    2.1936    1.4721    0.0000 C   0  0  0  0  0  0  0  0  0  0  0  0
    2.9091    1.8710    0.0000 C   0  0  0  0  0  0  0  0  0  0  0  0
    0.8445    1.4721    0.0000 C   0  0  0  0  0  0  0  0  0  0  0  0
    0.8445    0.6980    0.0000 C   0  0  0  0  0  0  0  0  0  0  0  0
    2.8973    0.2991    0.0000 C   0  0  0  0  0  0  0  0  0  0  0  0
    3.5894    0.6862    0.0000 C   0  0  0  0  0  0  0  0  0  0  0  0
    2.9091    2.6099    0.0000 C   0  0  0  0  0  0  0  0  0  0  0  0
    0.8329    2.3167    0.0000 C   0  0  0  0  0  0  0  0  0  0  0  0
   -2.0763   -0.2873    0.0000 C   0  0  0  0  0  0  0  0  0  0  0  0
   -1.3607   -0.6980    0.0000 C   0  0  0  0  0  0  0  0  0  0  0  0
    4.2346    1.8475    0.0000 C   0  0  0  0  0  0  0  0  0  0  0  0
    2.8739   -0.3811    0.0000 C   0  0  0  0  0  0  0  0  0  0  0  0
   -2.7918   -0.6980    0.0000 C   0  0  0  0  0  0  0  0  0  0  0  0
    4.2346    2.5983    0.0000 C   0  0  0  0  0  0  0  0  0  0  0  0
   -1.3607    1.5660    0.0000 C   0  0  0  0  0  0  0  0  0  0  0  0
   -1.3607    1.0146    0.0000 C   0  0  0  0  0  0  0  0  0  0  0  0
   -2.7918   -1.4838    0.0000 C   0  0  0  0  0  0  0  0  0  0  0  0
   -2.0763    0.5923    0.0000 C   0  0  0  0  0  0  0  0  0  0  0  0
   -2.0763   -1.9062    0.0000 C   0  0  0  0  0  0  0  0  0  0  0  0
   -1.3607   -1.4838    0.0000 C   0  0  0  0  0  0  0  0  0  0  0  0
   -0.6334    0.5923    0.0000 C   0  0  0  0  0  0  0  0  0  0  0  0
   -3.4955   -1.9062    0.0000 C   0  0  0  0  0  0  0  0  0  0  0  0
   -3.5190   -0.2873    0.0000 C   0  0  0  0  0  0  0  0  0  0  0  0
    0.1408    2.7624    0.0000 C   0  0  0  0  0  0  0  0  0  0  0  0
    1.5601    2.7272    0.0000 C   0  0  0  0  0  0  0  0  0  0  0  0
   -2.2639   -2.7624    0.0000 C   0  0  0  0  0  0  0  0  0  0  0  0
    3.5776   -0.8153    0.0000 C   0  0  0  0  0  0  0  0  0  0  0  0
    2.1349   -0.7682    0.0000 C   0  0  0  0  0  0  0  0  0  0  0  0
   -4.2346   -1.4838    0.0000 C   0  0  0  0  0  0  0  0  0  0  0  0
   -4.2346   -0.6744    0.0000 C   0  0  0  0  0  0  0  0  0  0  0  0
    0.2346   -0.6509    0.0000 C   0  0  0  0  0  0  0  0  0  0  0  0
  1 11  1  0
  1 13  1  0
 11  2  1  6
  3 14  2  0
  4 16  2  0
  5 25  2  0
  6 11  1  0
  6 14  1  0
  6 15  1  0
  7 12  1  0
  7 16  1  0
  7 21  1  0
 13  8  1  6
  8 25  1  0
  9 20  1  0
  9 31  1  0
  9 41  1  0
 10 32  1  0
 10 36  1  0
 11 12  1  0
 12 17  1  6
 13 14  1  0
 13 18  1  0
 15 16  1  0
 15 22  1  6
 17 24  1  0
 18 34  1  0
 18 35  1  0
 19 20  1  0
 19 23  1  0
 19 28  1  1
 20 30  1  6
 21 24  1  0
 22 37  1  0
 22 38  1  0
 23 27  2  0
 23 33  1  0
 26 25  1  1
 26 28  1  0
 26 31  1  0
 27 29  1  0
 27 32  1  0
 29 30  1  0
 29 36  2  0
 32 39  2  0
 33 40  2  0
 39 40  1  0
M  END
$$$$
