
     RDKit          2D

 45 44  0  0  0  0  0  0  0  0999 V2000
   15.8961   10.0026    0.0000 C   0  0  0  0  0  0  0  0  0  0  0  0
   16.6105   10.4151    0.0000 C   0  0  0  0  0  0  0  0  0  0  0  0
   17.3250   10.0026    0.0000 C   0  0  0  0  0  0  0  0  0  0  0  0
   18.0395   10.4151    0.0000 C   0  0  0  0  0  0  0  0  0  0  0  0
   18.7539   10.0026    0.0000 C   0  0  0  0  0  0  0  0  0  0  0  0
   19.4684   10.4151    0.0000 C   0  0  0  0  0  0  0  0  0  0  0  0
   20.1829   10.0026    0.0000 C   0  0  0  0  0  0  0  0  0  0  0  0
   20.8974   10.4151    0.0000 C   0  0  0  0  0  0  0  0  0  0  0  0
   21.6118   10.0026    0.0000 C   0  0  0  0  0  0  0  0  0  0  0  0
   22.3263   10.4151    0.0000 C   0  0  0  0  0  0  0  0  0  0  0  0
   23.0408   10.0026    0.0000 C   0  0  0  0  0  0  0  0  0  0  0  0
   23.7552   10.4151    0.0000 C   0  0  0  0  0  0  0  0  0  0  0  0
   24.4697   10.0026    0.0000 C   0  0  0  0  0  0  0  0  0  0  0  0
   25.1842   10.4151    0.0000 C   0  0  0  0  0  0  0  0  0  0  0  0
   25.1842   11.2401    0.0000 O   0  0  0  0  0  0  0  0  0  0  0  0
   25.8987   10.0026    0.0000 O   0  0  0  0  0  0  0  0  0  0  0  0
   26.6131   10.4151    0.0000 C   0  0  0  0  0  0  0  0  0  0  0  0
   27.3276   10.0026    0.0000 C   0  0  0  0  0  0  0  0  0  0  0  0
   27.3276    9.1776    0.0000 C   0  0  0  0  0  0  0  0  0  0  0  0
   28.0421    8.7651    0.0000 O   0  0  0  0  0  0  0  0  0  0  0  0
   28.0421    7.9401    0.0000 P   0  0  0  0  0  0  0  0  0  0  0  0
   28.8671    7.9401    0.0000 O   0  0  0  0  0  0  0  0  0  0  0  0
   27.2171    7.9401    0.0000 O   0  0  0  0  0  0  0  0  0  0  0  0
   28.0421    7.1151    0.0000 O   0  0  0  0  0  0  0  0  0  0  0  0
   27.3276    6.7026    0.0000 C   0  0  0  0  0  0  0  0  0  0  0  0
   27.3276    5.8776    0.0000 C   0  0  0  0  0  0  0  0  0  0  0  0
   28.0421    5.4651    0.0000 C   0  0  0  0  0  0  0  0  0  0  0  0
   28.0421    4.6401    0.0000 O   0  0  0  0  0  0  0  0  0  0  0  0
   26.6131    5.4651    0.0000 O   0  0  0  0  0  0  0  0  0  0  0  0
   28.0421   10.4151    0.0000 O   0  0  0  0  0  0  0  0  0  0  0  0
   28.7565   10.0026    0.0000 C   0  0  0  0  0  0  0  0  0  0  0  0
   28.7565    9.1776    0.0000 O   0  0  0  0  0  0  0  0  0  0  0  0
   29.4710   10.4151    0.0000 C   0  0  0  0  0  0  0  0  0  0  0  0
   30.1855   10.0026    0.0000 C   0  0  0  0  0  0  0  0  0  0  0  0
   30.8999   10.4151    0.0000 C   0  0  0  0  0  0  0  0  0  0  0  0
   31.6144   10.0026    0.0000 C   0  0  0  0  0  0  0  0  0  0  0  0
   32.3289   10.4151    0.0000 C   0  0  0  0  0  0  0  0  0  0  0  0
   33.0434   10.0026    0.0000 C   0  0  0  0  0  0  0  0  0  0  0  0
   33.7578   10.4151    0.0000 C   0  0  0  0  0  0  0  0  0  0  0  0
   34.4723   10.0026    0.0000 C   0  0  0  0  0  0  0  0  0  0  0  0
   35.1868   10.4151    0.0000 C   0  0  0  0  0  0  0  0  0  0  0  0
   35.9012   10.0026    0.0000 C   0  0  0  0  0  0  0  0  0  0  0  0
   36.6157   10.4151    0.0000 C   0  0  0  0  0  0  0  0  0  0  0  0
   37.3302   10.0026    0.0000 C   0  0  0  0  0  0  0  0  0  0  0  0
   38.0447   10.4151    0.0000 C   0  0  0  0  0  0  0  0  0  0  0  0
  1  2  1  0
  2  3  1  0
  3  4  1  0
  4  5  1  0
  5  6  1  0
  6  7  1  0
  7  8  1  0
  8  9  1  0
  9 10  1  0
 10 11  1  0
 11 12  1  0
 12 13  1  0
 13 14  1  0
 14 15  2  0
 14 16  1  0
 16 17  1  0
 17 18  1  0
 18 19  1  0
 19 20  1  0
 20 21  1  0
 21 22  2  0
 21 23  1  0
 21 24  1  0
 24 25  1  0
 25 26  1  0
 26 27  1  0
 27 28  1  0
 26 29  1  0
 18 30  1  0
 30 31  1  0
 31 32  2  0
 31 33  1  0
 33 34  1  0
 34 35  1  0
 35 36  1  0
 36 37  1  0
 37 38  1  0
 38 39  1  0
 39 40  1  0
 40 41  1  0
 41 42  1  0
 42 43  1  0
 43 44  1  0
 44 45  1  0
M  END
$$$$
