
     RDKit          2D

109123  0  0  0  0  0  0  0  0999 V2000
   -0.3218   -0.0528    0.0000 Co  0  0  0  0  0  6  0  0  0  0  0  0
   -1.0291   -1.7548    0.0000 C   0  0  0  0  0  0  0  0  0  0  0  0
   -1.1410   -0.9514    0.0000 N   0  0  0  0  0  0  0  0  0  0  0  0
   -1.1410    0.7467    0.0000 N   0  0  0  0  0  0  0  0  0  0  0  0
   -1.0291    1.5502    0.0000 C   0  0  0  0  0  0  0  0  0  0  0  0
   -1.7415    1.9269    0.0000 C   0  0  0  0  0  0  0  0  0  0  0  0
    0.4120    1.5502    0.0000 C   0  0  0  0  0  0  0  0  0  0  0  0
    0.5363    0.7467    0.0000 N   0  0  0  0  0  0  0  0  0  0  0  0
    1.3605    0.5976    0.0000 C   0  0  0  0  0  0  0  0  0  0  0  0
    1.7746   -0.1024    0.0000 C   0  0  0  0  0  0  0  0  0  0  0  0
    1.3605   -0.8064    0.0000 C   0  0  0  0  0  0  0  0  0  0  0  0
    0.5363   -0.9514    0.0000 N   0  0  0  0  0  0  0  0  0  0  0  0
    0.4120   -1.7548    0.0000 C   0  0  0  0  0  0  0  0  0  0  0  0
    1.1493   -2.1358    0.0000 C   0  0  0  0  0  0  0  0  0  0  0  0
    1.2716   -2.9518    0.0000 C   0  0  0  0  0  0  0  0  0  0  0  0
    2.0394   -3.2536    0.0000 C   0  0  0  0  0  0  0  0  0  0  0  0
    2.1618   -4.0695    0.0000 C   0  0  0  0  0  0  0  0  0  0  0  0
    1.7415   -1.5561    0.0000 C   0  0  0  0  0  0  0  0  0  0  0  0
    2.3797   -2.0789    0.0000 C   0  0  0  0  0  0  0  0  0  0  0  0
    2.5134   -1.2648    0.0000 C   0  0  0  0  0  0  0  0  0  0  0  0
    1.9001    2.2689    0.0000 C   0  0  0  0  0  0  0  0  0  0  0  0
   -0.2919    1.9600    0.0000 C   0  0  0  0  0  0  0  0  0  0  0  0
   -0.2919    2.7850    0.0000 C   0  0  0  0  0  0  0  0  0  0  0  0
   -0.2919   -2.1690    0.0000 C   0  0  0  0  0  0  0  0  0  0  0  0
   -0.2919   -2.9940    0.0000 C   0  0  0  0  0  0  0  0  0  0  0  0
   -1.9527   -0.8064    0.0000 C   0  0  0  0  0  0  0  0  0  0  0  0
   -1.9527    0.6224    0.0000 C   0  0  0  0  0  0  0  0  0  0  0  0
   -2.7496    0.4089    0.0000 C   0  0  0  0  0  0  0  0  0  0  0  0
   -1.7415   -2.9608    0.0000 C   0  0  0  0  0  0  0  0  0  0  0  0
    1.7415    1.3471    0.0000 C   0  0  0  0  0  0  0  0  0  0  0  0
    2.4560    1.7597    0.0000 C   0  0  0  0  0  0  0  0  0  0  0  0
    3.1704    1.3471    0.0000 C   0  0  0  0  0  0  0  0  0  0  0  0
    3.8849    1.7597    0.0000 C   0  0  0  0  0  0  0  0  0  0  0  0
    3.8849    2.5847    0.0000 O   0  0  0  0  0  0  0  0  0  0  0  0
    4.5994    1.3471    0.0000 N   0  0  0  0  0  0  0  0  0  0  0  0
    1.1493    2.7519    0.0000 C   0  0  0  0  0  0  0  0  0  0  0  0
    1.8638    3.1645    0.0000 C   0  0  0  0  0  0  0  0  0  0  0  0
    1.8638    3.9895    0.0000 O   0  0  0  0  0  0  0  0  0  0  0  0
    2.5782    2.7519    0.0000 N   0  0  0  0  0  0  0  0  0  0  0  0
    1.1493    1.9269    0.0000 C   0  0  0  0  0  0  0  0  0  0  0  0
   -3.0482    0.9347    0.0000 C   0  0  0  0  0  0  0  0  0  0  0  0
   -3.7626    1.3471    0.0000 C   0  0  0  0  0  0  0  0  0  0  0  0
   -3.7626    2.1722    0.0000 O   0  0  0  0  0  0  0  0  0  0  0  0
   -4.4771    0.9347    0.0000 N   0  0  0  0  0  0  0  0  0  0  0  0
   -2.3337   -1.5561    0.0000 C   0  0  0  0  0  0  0  0  0  0  0  0
   -3.0482   -1.9685    0.0000 C   0  0  0  0  0  0  0  0  0  0  0  0
   -3.7626   -1.5561    0.0000 C   0  0  0  0  0  0  0  0  0  0  0  0
   -3.7626   -0.7310    0.0000 O   0  0  0  0  0  0  0  0  0  0  0  0
   -4.4771   -1.9685    0.0000 N   0  0  0  0  0  0  0  0  0  0  0  0
    1.6816   -6.5338    0.0000 C   0  0  0  0  0  0  0  0  0  0  0  0
    0.6016   -5.7491    0.0000 C   0  0  0  0  0  0  0  0  0  0  0  0
    1.0141   -7.0187    0.0000 C   0  0  0  0  0  0  0  0  0  0  0  0
    1.4266   -5.7491    0.0000 N   0  0  0  0  0  0  0  0  0  0  0  0
    0.3466   -6.5338    0.0000 N   0  0  0  0  0  0  0  0  0  0  0  0
   -0.4379   -6.7887    0.0000 C   0  0  0  0  0  0  0  0  0  0  0  0
   -0.6928   -7.5734    0.0000 O   0  0  0  0  0  0  0  0  0  0  0  0
   -1.5178   -7.5734    0.0000 C   0  0  0  0  0  0  0  0  0  0  0  0
   -2.0027   -8.2409    0.0000 C   0  0  0  0  0  0  0  0  0  0  0  0
   -1.6672   -8.9945    0.0000 O   0  0  0  0  0  0  0  0  0  0  0  0
   -1.1053   -6.3038    0.0000 C   0  0  0  0  0  0  0  0  0  0  0  0
   -1.1053   -5.4788    0.0000 O   0  0  0  0  0  0  0  0  0  0  0  0
   -1.7728   -6.7887    0.0000 C   0  0  0  0  0  0  0  0  0  0  0  0
   -2.5574   -6.5338    0.0000 O   0  0  0  0  0  0  0  0  0  0  0  0
   -2.4560   -3.3734    0.0000 C   0  0  0  0  0  0  0  0  0  0  0  0
   -3.1704   -3.7859    0.0000 C   0  0  0  0  0  0  0  0  0  0  0  0
   -3.8849   -3.3734    0.0000 O   0  0  0  0  0  0  0  0  0  0  0  0
   -3.1704   -4.6109    0.0000 N   0  0  0  0  0  0  0  0  0  0  0  0
   -3.8849   -5.0233    0.0000 C   0  0  0  0  0  0  0  0  0  0  0  0
   -2.4560   -2.5484    0.0000 C   0  0  0  0  0  0  0  0  0  0  0  0
   -1.7415   -2.1358    0.0000 C   0  0  0  0  0  0  0  0  0  0  0  0
   -3.8849   -5.8483    0.0000 C   0  0  0  0  0  0  0  0  0  0  0  0
   -3.1705   -6.2609    0.0000 O   0  0  0  0  0  0  0  0  0  0  0  0
   -4.5994   -6.2609    0.0000 C   0  0  0  0  0  0  0  0  0  0  0  0
   -3.9955   -7.0859    0.0000 O   0  0  0  0  0  0  0  0  0  0  0  0
   -3.1705   -7.0859    0.0000 P   0  0  0  0  0  0  0  0  0  0  0  0
   -2.7580   -7.8004    0.0000 O   0  0  0  0  0  0  0  0  0  0  0  0
    1.5163   -4.5834    0.0000 O   0  0  0  0  0  0  0  0  0  0  0  0
    2.9294   -4.3716    0.0000 N   0  0  0  0  0  0  0  0  0  0  0  0
   -2.3337    1.3471    0.0000 C   0  0  0  0  0  0  0  0  0  0  0  0
   -2.5472    2.1440    0.0000 C   0  0  0  0  0  0  0  0  0  0  0  0
    1.1003   -7.8392    0.0000 C   0  0  0  0  0  0  0  0  0  0  0  0
    2.5214   -7.6899    0.0000 C   0  0  0  0  0  0  0  0  0  0  0  0
   -1.8599    2.7434    0.0000 C   0  0  0  0  0  0  0  0  0  0  0  0
   -2.6261    3.0492    0.0000 C   0  0  0  0  0  0  0  0  0  0  0  0
   -2.7446    3.8657    0.0000 C   0  0  0  0  0  0  0  0  0  0  0  0
   -3.5109    4.1713    0.0000 O   0  0  0  0  0  0  0  0  0  0  0  0
   -2.0967    4.3765    0.0000 N   0  0  0  0  0  0  0  0  0  0  0  0
   -1.2629    3.7237    0.0000 C   0  0  0  0  0  0  0  0  0  0  0  0
    0.0496    8.9953    0.0000 N   0  0  0  0  0  0  0  0  0  0  0  0
   -0.3628    8.2808    0.0000 C   0  0  0  0  0  0  0  0  0  0  0  0
   -1.1878    8.2808    0.0000 N   0  0  0  0  0  0  0  0  0  0  0  0
   -1.6003    7.5663    0.0000 C   0  0  0  0  0  0  0  0  0  0  0  0
   -1.1878    6.8519    0.0000 N   0  0  0  0  0  0  0  0  0  0  0  0
   -0.3628    6.8519    0.0000 C   0  0  0  0  0  0  0  0  0  0  0  0
    0.0496    7.5664    0.0000 C   0  0  0  0  0  0  0  0  0  0  0  0
    0.8564    7.3948    0.0000 N   0  0  0  0  0  0  0  0  0  0  0  0
    0.9427    6.5743    0.0000 C   0  0  0  0  0  0  0  0  0  0  0  0
    0.1891    6.2388    0.0000 N   0  0  0  0  0  0  0  0  0  0  0  0
    0.0176    5.4318    0.0000 C   0  0  0  0  0  0  0  0  0  0  0  0
   -0.7360    5.0961    0.0000 O   0  0  0  0  0  0  0  0  0  0  0  0
   -0.6498    4.2756    0.0000 C   0  0  0  0  0  0  0  0  0  0  0  0
    0.1571    4.1042    0.0000 C   0  0  0  0  0  0  0  0  0  0  0  0
    0.4927    3.3505    0.0000 O   0  0  0  0  0  0  0  0  0  0  0  0
    0.5696    4.8187    0.0000 C   0  0  0  0  0  0  0  0  0  0  0  0
    1.3900    4.9049    0.0000 O   0  0  0  0  0  0  0  0  0  0  0  0
    1.8541   -8.1748    0.0000 C   0  0  0  0  0  0  0  0  0  0  0  0
    2.4352   -6.8694    0.0000 C   0  0  0  0  0  0  0  0  0  0  0  0
    1.9403   -8.9953    0.0000 C   0  0  0  0  0  0  0  0  0  0  0  0
    3.2750   -8.0255    0.0000 C   0  0  0  0  0  0  0  0  0  0  0  0
  3  1  1  0
 24  2  2  0
  2  3  1  0
 70  2  1  0
 26  3  1  6
 27  4  1  0
  4  5  2  0
  6  5  1  0
  5 22  1  0
  6 83  1  6
 79  6  1  0
 22  7  2  0
  7  8  1  0
 40  7  1  0
  8  9  2  0
  9 10  1  0
 30  9  1  0
 10 11  2  0
 11 12  1  0
 11 18  1  0
 12 13  2  0
 13 14  1  0
 24 13  1  0
 14 15  1  6
 14 18  1  0
 15 16  1  0
 16 17  1  0
 17 77  2  0
 17 78  1  0
 18 19  1  0
 18 20  1  0
 40 21  1  6
 22 23  1  0
 24 25  1  0
 26 45  1  0
 26 27  1  0
 27 79  1  0
 27 28  1  6
 70 29  1  1
 30 40  1  0
 30 31  1  6
 31 32  1  0
 32 33  1  0
 33 34  2  0
 33 35  1  0
 36 37  1  0
 40 36  1  0
 37 39  1  0
 37 38  2  0
 79 41  1  0
 41 42  1  0
 42 43  2  0
 42 44  1  0
 45 70  1  0
 45 46  1  1
 46 47  1  0
 47 48  2  0
 47 49  1  0
107 50  1  0
 50 53  1  0
 50 52  2  0
 51 54  1  0
 51 53  2  0
 52 81  1  0
 54 52  1  0
 55 54  1  0
 55 60  1  0
 55 56  1  1
 57 56  1  0
 62 57  1  0
 57 58  1  6
 58 59  1  0
 60 62  1  0
 60 61  1  1
 62 63  1  1
 75 63  1  0
 69 64  1  0
 64 65  1  0
 65 66  2  0
 65 67  1  0
 68 67  1  0
 71 68  1  0
 70 69  1  0
 71 72  1  0
 71 73  1  6
 75 72  1  0
 75 74  2  0
 75 76  1  0
 79 80  1  6
 81106  2  0
106 82  1  0
107 82  2  0
 83 84  1  0
 84 85  1  0
 85 87  1  0
 85 86  2  0
 88  1  1  0
 89 90  1  0
 90 91  2  0
 90 95  1  0
 91 92  1  0
 92 93  2  0
 93 94  1  0
 94 95  2  0
 94 98  1  0
 95 96  1  0
 96 97  2  0
 97 98  1  0
 99 98  1  1
 99100  1  0
 99104  1  0
100101  1  0
101 88  1  1
101102  1  0
102103  1  6
102104  1  0
104105  1  6
 82109  1  0
106108  1  0
  8  1  1  0
  4  1  1  0
 12  1  1  0
 53  1  1  0
M  CHG  6   1  -3   4   1   8   1  12   1  53   1  76  -1
M  END
$$$$
