
     RDKit          2D

  5  4  0  0  0  0  0  0  0  0999 V2000
    4.4884    0.5716    0.0000 C   0  0  0  0  0  0  0  0  0  0  0  0
    4.9009   -0.1429    0.0000 C   0  0  0  0  0  0  0  0  0  0  0  0
    5.7259   -0.1429    0.0000 O   0  0  0  0  0  0  0  0  0  0  0  0
    4.4884   -0.8574    0.0000 O   0  0  0  0  0  0  0  0  0  0  0  0
    3.6634    0.5716    0.0000 N   0  0  0  0  0  0  0  0  0  0  0  0
  1  2  1  0
  2  3  2  0
  2  4  1  0
  1  5  1  0
M  CHG  1   4  -1
M  END
$$$$
