
     RDKit          2D

 52 60  0  0  0  0  0  0  0  0999 V2000
    0.7291   -4.1107    0.0000 C   0  0  0  0  0  0  0  0  0  0  0  0
   -4.0997   -0.8133    0.0000 C   0  0  0  0  0  0  0  0  0  0  0  0
    4.0937    0.7648    0.0000 C   0  0  0  0  0  0  0  0  0  0  0  0
   -0.7103    4.1119    0.0000 C   0  0  0  0  0  0  0  0  0  0  0  0
    0.7277   -3.2857    0.0000 C   0  0  0  0  0  0  0  0  0  0  0  0
   -3.2749   -0.7926    0.0000 C   0  0  0  0  0  0  0  0  0  0  0  0
    3.2688    0.7518    0.0000 C   0  0  0  0  0  0  0  0  0  0  0  0
   -0.7101    3.2869    0.0000 C   0  0  0  0  0  0  0  0  0  0  0  0
    0.0153   -4.5244    0.0000 C   0  0  0  0  0  0  0  0  0  0  0  0
   -4.5300   -0.1095    0.0000 C   0  0  0  0  0  0  0  0  0  0  0  0
    4.5174    0.0570    0.0000 C   0  0  0  0  0  0  0  0  0  0  0  0
    0.0040    4.5246    0.0000 C   0  0  0  0  0  0  0  0  0  0  0  0
   -1.4819   -2.0624    0.0000 C   0  0  0  0  0  0  0  0  0  0  0  0
    1.5044   -2.0364    0.0000 C   0  0  0  0  0  0  0  0  0  0  0  0
   -2.0430   -1.5110    0.0000 C   0  0  0  0  0  0  0  0  0  0  0  0
    2.0558   -1.4752    0.0000 C   0  0  0  0  0  0  0  0  0  0  0  0
   -2.0393    1.4169    0.0000 C   0  0  0  0  0  0  0  0  0  0  0  0
    2.0297    1.5110    0.0000 C   0  0  0  0  0  0  0  0  0  0  0  0
   -1.4588    2.0076    0.0000 C   0  0  0  0  0  0  0  0  0  0  0  0
    1.4686    2.0624    0.0000 C   0  0  0  0  0  0  0  0  0  0  0  0
   -0.7012   -3.2881    0.0000 C   0  0  0  0  0  0  0  0  0  0  0  0
   -3.3109    0.6359    0.0000 C   0  0  0  0  0  0  0  0  0  0  0  0
    3.2913   -0.6769    0.0000 C   0  0  0  0  0  0  0  0  0  0  0  0
    0.7188    3.2873    0.0000 C   0  0  0  0  0  0  0  0  0  0  0  0
    0.0126   -2.8744    0.0000 C   0  0  0  0  0  0  0  0  0  0  0  0
   -2.8805   -0.0680    0.0000 C   0  0  0  0  0  0  0  0  0  0  0  0
    2.8676    0.0309    0.0000 C   0  0  0  0  0  0  0  0  0  0  0  0
    0.0045    2.8746    0.0000 C   0  0  0  0  0  0  0  0  0  0  0  0
   -0.6999   -4.1131    0.0000 C   0  0  0  0  0  0  0  0  0  0  0  0
   -4.1356    0.6152    0.0000 C   0  0  0  0  0  0  0  0  0  0  0  0
    4.1162   -0.6639    0.0000 C   0  0  0  0  0  0  0  0  0  0  0  0
    0.7186    4.1123    0.0000 C   0  0  0  0  0  0  0  0  0  0  0  0
   -0.7243   -1.6459    0.0000 C   0  0  0  0  0  0  0  0  0  0  0  0
    0.7106   -1.6627    0.0000 C   0  0  0  0  0  0  0  0  0  0  0  0
   -1.6690   -0.7465    0.0000 C   0  0  0  0  0  0  0  0  0  0  0  0
    1.6683   -0.6881    0.0000 C   0  0  0  0  0  0  0  0  0  0  0  0
   -1.6818    0.7174    0.0000 C   0  0  0  0  0  0  0  0  0  0  0  0
    1.6265    0.7462    0.0000 C   0  0  0  0  0  0  0  0  0  0  0  0
   -0.7239    1.6627    0.0000 C   0  0  0  0  0  0  0  0  0  0  0  0
    0.7107    1.6752    0.0000 C   0  0  0  0  0  0  0  0  0  0  0  0
    0.0112   -2.0494    0.0000 C   0  0  0  0  0  0  0  0  0  0  0  0
   -2.0558   -0.0472    0.0000 C   0  0  0  0  0  0  0  0  0  0  0  0
    2.0427    0.0179    0.0000 C   0  0  0  0  0  0  0  0  0  0  0  0
    0.0047    2.0496    0.0000 C   0  0  0  0  0  0  0  0  0  0  0  0
   -0.8480   -0.8857    0.0000 N   0  0  0  0  0  0  0  0  0  0  0  0
    0.8501   -0.8709    0.0000 N   0  0  0  0  0  0  0  0  0  0  0  0
   -0.8926    0.8706    0.0000 N   0  0  0  0  0  0  0  0  0  0  0  0
    0.8643    0.8567    0.0000 N   0  0  0  0  0  0  0  0  0  0  0  0
   -1.4137   -4.5268    0.0000 O   0  0  0  0  0  0  0  0  0  0  0  0
   -4.5660    1.3190    0.0000 O   0  0  0  0  0  0  0  0  0  0  0  0
    4.5399   -1.3718    0.0000 O   0  0  0  0  0  0  0  0  0  0  0  0
    1.4330    4.5250    0.0000 O   0  0  0  0  0  0  0  0  0  0  0  0
  5  1  2  0
  6  2  2  0
  7  3  2  0
  8  4  2  0
  9  1  1  0
 10  2  1  0
 11  3  1  0
 12  4  1  0
 15 13  2  0
 16 14  2  0
 19 17  1  0
 20 18  1  0
 25  5  1  0
 25 21  2  0
 26  6  1  0
 26 22  2  0
 27  7  1  0
 27 23  2  0
 28  8  1  0
 28 24  2  0
 29  9  2  0
 29 21  1  0
 30 10  2  0
 30 22  1  0
 31 11  2  0
 31 23  1  0
 32 12  2  0
 32 24  1  0
 33 13  1  0
 34 14  1  0
 35 15  1  0
 36 16  1  0
 37 17  2  0
 38 18  1  0
 39 19  2  0
 40 20  1  0
 41 25  1  0
 41 33  1  0
 41 34  2  0
 42 26  1  0
 42 35  2  0
 42 37  1  0
 43 27  1  0
 43 36  2  0
 43 38  1  0
 44 28  1  0
 44 39  1  0
 44 40  2  0
 45 33  2  0
 45 35  1  0
 46 34  1  0
 46 36  1  0
 47 37  1  0
 47 39  1  0
 48 38  2  0
 48 40  1  0
 49 29  1  0
 50 30  1  0
 51 31  1  0
 52 32  1  0
M  END
$$$$
