
     RDKit          2D

 16 17  0  0  1  0  0  0  0  0999 V2000
    1.8731    2.7707    0.0000 C   0  0  0  0  0  0  0  0  0  0  0  0
    3.0539   -0.2865    0.0000 C   0  0  0  0  0  0  0  0  0  0  0  0
    3.7683    0.1260    0.0000 C   0  0  0  0  0  0  0  0  0  0  0  0
   -0.0000    1.0770    0.0000 C   0  0  0  0  0  0  0  0  0  0  0  0
    0.5303    0.4450    0.0000 C   0  0  0  0  0  0  0  0  0  0  0  0
    2.3394    0.1260    0.0000 C   0  0  0  0  0  0  0  0  0  0  0  0
    3.7683    0.9510    0.0000 C   0  0  0  0  0  0  0  0  0  0  0  0
    0.2822    1.8522    0.0000 C   0  0  0  0  0  0  0  0  0  0  0  0
    1.3428    0.5882    0.0000 C   0  0  0  0  0  0  0  0  0  0  0  0
    2.3394    0.9510    0.0000 C   0  0  0  0  0  0  0  0  0  0  0  0
    3.0539    1.3635    0.0000 C   0  0  0  0  0  0  0  0  0  0  0  0
    1.0946    1.9955    0.0000 C   0  0  0  0  0  0  0  0  0  0  0  0
    1.6249    1.3635    0.0000 C   0  0  0  0  0  0  0  0  0  0  0  0
    3.0539    2.1885    0.0000 Cl  0  0  0  0  0  0  0  0  0  0  0  0
    2.1552    1.9955    0.0000 N   0  0  0  0  0  0  0  0  0  0  0  0
    1.3768    2.7707    0.0000 O   0  0  0  0  0  0  0  0  0  0  0  0
  3  2  2  0
  5  4  1  0
  6  2  1  0
  7  3  1  0
  8  4  1  0
  9  5  1  0
 10  6  2  0
 11  7  2  0
 11 10  1  0
 12  8  1  0
 13  9  1  0
 13 10  1  0
 13 12  1  0
 14 11  1  0
 15  1  1  0
 13 15  1  6
 16 12  2  0
M  END
$$$$
