
     RDKit          2D

 19 18  0  0  0  0  0  0  0  0999 V2000
    2.8312   -0.0798    0.0000 S   0  0  0  0  0  0  0  0  0  0  0  0
    3.5716   -0.4428    0.0000 O   0  0  0  0  0  0  0  0  0  0  0  0
    2.1488   -0.5396    0.0000 O   0  0  0  0  0  0  0  0  0  0  0  0
    3.2378    0.6315    0.0000 O   0  0  0  0  0  0  0  0  0  0  0  0
    2.4198    0.6315    0.0000 O   0  0  0  0  0  0  0  0  0  0  0  0
    1.4325   -0.1814    0.0000 C   0  0  0  0  0  0  0  0  0  0  0  0
    1.3938    0.6509    0.0000 C   0  0  0  0  0  0  0  0  0  0  0  0
    0.7259   -0.6170    0.0000 C   0  0  0  0  0  0  0  0  0  0  0  0
    0.0096   -0.2056    0.0000 C   0  0  0  0  0  0  0  0  0  0  0  0
    0.6388    1.0139    0.0000 C   0  0  0  0  0  0  0  0  0  0  0  0
   -0.7163   -0.5977    0.0000 C   0  0  0  0  0  0  0  0  0  0  0  0
   -0.7017   -1.4301    0.0000 C   0  0  0  0  0  0  0  0  0  0  0  0
   -1.4132   -0.1959    0.0000 C   0  0  0  0  0  0  0  0  0  0  0  0
   -2.8457   -0.1669    0.0000 C   0  0  0  0  0  0  0  0  0  0  0  0
   -2.1343   -0.5831    0.0000 C   0  0  0  0  0  0  0  0  0  0  0  0
   -0.0435    0.5784    0.0000 C   0  0  0  0  0  0  0  0  0  0  0  0
    0.6049    1.8511    0.0000 C   0  0  0  0  0  0  0  0  0  0  0  0
   -0.0194   -1.8511    0.0000 C   0  0  0  0  0  0  0  0  0  0  0  0
   -3.5716   -0.5880    0.0000 C   0  0  0  0  0  0  0  0  0  0  0  0
  2  1  1  0
  3  1  1  0
  4  1  2  0
  5  1  2  0
  6  3  1  0
  7  6  1  0
  8  6  1  0
  9  8  1  0
 10  7  1  0
 11  9  1  0
 12 11  1  0
 13 11  1  0
 14 15  1  0
 15 13  1  0
 16 10  1  0
 17 10  1  0
 18 12  1  0
 19 14  1  0
M  END
$$$$
