
     RDKit          2D

 22 21  0  0  1  0  0  0  0  0999 V2000
    5.5002    1.3021    0.0000 C   0  0  0  0  0  0  0  0  0  0  0  0
    6.1418    1.8207    0.0000 C   0  0  0  0  0  0  0  0  0  0  0  0
    6.0134    2.6356    0.0000 C   0  0  0  0  0  0  0  0  0  0  0  0
    6.9117    1.5243    0.0000 C   0  0  0  0  0  0  0  0  0  0  0  0
    7.5533    2.0429    0.0000 C   0  0  0  0  0  0  0  0  0  0  0  0
    7.4250    2.8579    0.0000 C   0  0  0  0  0  0  0  0  0  0  0  0
    8.0666    3.3765    0.0000 O   0  0  0  0  0  0  0  0  0  0  0  0
    6.6551    3.1542    0.0000 O   0  0  0  0  0  0  0  0  0  0  0  0
    6.5267    3.9692    0.0000 C   0  0  0  0  0  0  0  0  0  0  0  0
    8.3233    1.7466    0.0000 N   0  0  0  0  0  0  0  0  0  0  0  0
    8.9649    2.2652    0.0000 C   0  0  0  0  0  0  0  0  0  0  0  0
    8.8366    3.0801    0.0000 O   0  0  0  0  0  0  0  0  0  0  0  0
    9.7348    1.9688    0.0000 C   0  0  0  0  0  0  0  0  0  0  0  0
   10.3764    2.4874    0.0000 C   0  0  0  0  0  0  0  0  0  0  0  0
   11.1464    2.1911    0.0000 C   0  0  0  0  0  0  0  0  0  0  0  0
   11.7880    2.7097    0.0000 C   0  0  0  0  0  0  0  0  0  0  0  0
   12.5579    2.4134    0.0000 C   0  0  0  0  0  0  0  0  0  0  0  0
   13.1995    2.9320    0.0000 C   0  0  0  0  0  0  0  0  0  0  0  0
   13.9695    2.6356    0.0000 C   0  0  0  0  0  0  0  0  0  0  0  0
   14.6111    3.1542    0.0000 C   0  0  0  0  0  0  0  0  0  0  0  0
   15.3810    2.8579    0.0000 C   0  0  0  0  0  0  0  0  0  0  0  0
   16.0226    3.3765    0.0000 C   0  0  0  0  0  0  0  0  0  0  0  0
  1  2  1  0
  2  3  1  0
  2  4  1  0
  5  4  1  1
  5  6  1  0
  6  7  2  0
  6  8  1  0
  8  9  1  0
  5 10  1  0
 10 11  1  0
 11 12  2  0
 11 13  1  0
 13 14  1  0
 14 15  1  0
 15 16  1  0
 16 17  1  0
 17 18  1  0
 18 19  1  0
 19 20  1  0
 20 21  1  0
 21 22  2  3
M  END
$$$$
