
     RDKit          2D

 16 17  0  0  0  0  0  0  0  0999 V2000
   -0.3560   -0.2067    0.0000 S   0  0  0  0  0  0  0  0  0  0  0  0
    0.3580    0.2066    0.0000 S   0  0  0  0  0  0  0  0  0  0  0  0
   -1.0699    0.2066    0.0000 C   0  0  0  0  0  0  0  0  0  0  0  0
    1.0720   -0.2067    0.0000 C   0  0  0  0  0  0  0  0  0  0  0  0
   -1.0699    1.0309    0.0000 N   0  0  0  0  0  0  0  0  0  0  0  0
   -1.7839   -0.2067    0.0000 C   0  0  0  0  0  0  0  0  0  0  0  0
    1.0720   -1.0311    0.0000 N   0  0  0  0  0  0  0  0  0  0  0  0
    1.7839    0.2066    0.0000 C   0  0  0  0  0  0  0  0  0  0  0  0
   -0.3560    1.4422    0.0000 O   0  0  0  0  0  0  0  0  0  0  0  0
   -1.7839    1.4422    0.0000 C   0  0  0  0  0  0  0  0  0  0  0  0
   -2.4999    0.2066    0.0000 C   0  0  0  0  0  0  0  0  0  0  0  0
    0.3580   -1.4423    0.0000 O   0  0  0  0  0  0  0  0  0  0  0  0
    1.7839   -1.4423    0.0000 C   0  0  0  0  0  0  0  0  0  0  0  0
    2.4999   -0.2067    0.0000 C   0  0  0  0  0  0  0  0  0  0  0  0
   -2.4999    1.0309    0.0000 C   0  0  0  0  0  0  0  0  0  0  0  0
    2.4999   -1.0311    0.0000 C   0  0  0  0  0  0  0  0  0  0  0  0
  1  2  1  0
  1  3  1  0
  2  4  1  0
  3  5  2  0
  3  6  1  0
  4  7  2  0
  4  8  1  0
  5  9  1  0
  5 10  1  0
  6 11  2  0
  7 12  1  0
  7 13  1  0
  8 14  2  0
 10 15  2  0
 11 15  1  0
 13 16  2  0
 14 16  1  0
M  CHG  4   5   1   7   1   9  -1  12  -1
M  END
$$$$
