
     RDKit          2D

 51 55  0  0  0  0  0  0  0  0999 V2000
    0.8218    0.9646    0.0000 C   0  0  0  0  0  0  0  0  0  0  0  0
    2.9654    2.3041    0.0000 N   0  0  0  0  0  0  0  0  0  0  0  0
    0.0985    0.5124    0.0000 C   0  0  0  0  0  0  0  0  0  0  0  0
    2.2419    1.8520    0.0000 C   0  0  0  0  0  0  0  0  0  0  0  0
    1.5553    0.5659    0.0000 C   0  0  0  0  0  0  0  0  0  0  0  0
    0.7851    1.7985    0.0000 C   0  0  0  0  0  0  0  0  0  0  0  0
    1.4816    2.2337    0.0000 C   0  0  0  0  0  0  0  0  0  0  0  0
    2.2519    1.0013    0.0000 C   0  0  0  0  0  0  0  0  0  0  0  0
   -0.6348    0.9110    0.0000 C   0  0  0  0  0  0  0  0  0  0  0  0
    0.1520   -0.3481    0.0000 C   0  0  0  0  0  0  0  0  0  0  0  0
   -2.0851    1.6813    0.0000 C   0  0  0  0  0  0  0  0  0  0  0  0
    0.2255   -2.0160    0.0000 C   0  0  0  0  0  0  0  0  0  0  0  0
   -2.8621    2.0900    0.0000 N   0  0  0  0  0  0  0  0  0  0  0  0
    0.8855   -0.7467    0.0000 C   0  0  0  0  0  0  0  0  0  0  0  0
   -1.3315    0.4755    0.0000 C   0  0  0  0  0  0  0  0  0  0  0  0
   -0.5446   -0.7835    0.0000 C   0  0  0  0  0  0  0  0  0  0  0  0
   -0.6549    1.7181    0.0000 C   0  0  0  0  0  0  0  0  0  0  0  0
   -2.0751    0.8306    0.0000 C   0  0  0  0  0  0  0  0  0  0  0  0
   -0.5347   -1.6343    0.0000 C   0  0  0  0  0  0  0  0  0  0  0  0
   -1.3884    2.1167    0.0000 C   0  0  0  0  0  0  0  0  0  0  0  0
    0.9222   -1.5807    0.0000 C   0  0  0  0  0  0  0  0  0  0  0  0
    0.2255   -2.8422    0.0000 S   0  0  0  0  0  0  0  0  0  0  0  0
   -0.4838   -3.2535    0.0000 O   0  0  0  0  0  0  0  0  0  0  0  0
    1.0505   -2.8421    0.0000 O   0  0  0  0  0  0  0  0  0  0  0  0
    0.6317   -3.5603    0.0000 O   0  0  0  0  0  0  0  0  0  0  0  0
   -2.8944    2.9109    0.0000 C   0  0  0  0  0  0  0  0  0  0  0  0
   -2.1997    3.3493    0.0000 C   0  0  0  0  0  0  0  0  0  0  0  0
   -3.5568    1.6515    0.0000 C   0  0  0  0  0  0  0  0  0  0  0  0
   -4.2903    2.0500    0.0000 C   0  0  0  0  0  0  0  0  0  0  0  0
   -5.7404    2.8204    0.0000 C   0  0  0  0  0  0  0  0  0  0  0  0
   -4.9868    1.6147    0.0000 C   0  0  0  0  0  0  0  0  0  0  0  0
   -4.3103    2.8572    0.0000 C   0  0  0  0  0  0  0  0  0  0  0  0
   -5.7305    1.9698    0.0000 C   0  0  0  0  0  0  0  0  0  0  0  0
   -5.0438    3.2557    0.0000 C   0  0  0  0  0  0  0  0  0  0  0  0
   -6.4442    1.5535    0.0000 S   0  0  0  0  0  0  0  0  0  0  0  0
   -7.1568    1.9593    0.0000 O   0  0  0  0  0  0  0  0  0  0  0  0
   -6.0285    0.8410    0.0000 O   0  0  0  0  0  0  0  0  0  0  0  0
   -6.8599    0.8410    0.0000 O   0  0  0  0  0  0  0  0  0  0  0  0
    3.6907    1.9184    0.0000 C   0  0  0  0  0  0  0  0  0  0  0  0
    2.9366    3.1251    0.0000 C   0  0  0  0  0  0  0  0  0  0  0  0
    3.6333    3.5603    0.0000 C   0  0  0  0  0  0  0  0  0  0  0  0
    4.4242    2.3170    0.0000 C   0  0  0  0  0  0  0  0  0  0  0  0
    5.8743    3.0873    0.0000 C   0  0  0  0  0  0  0  0  0  0  0  0
    5.1207    1.8816    0.0000 C   0  0  0  0  0  0  0  0  0  0  0  0
    4.4441    3.1241    0.0000 C   0  0  0  0  0  0  0  0  0  0  0  0
    5.8644    2.2366    0.0000 C   0  0  0  0  0  0  0  0  0  0  0  0
    5.1776    3.5228    0.0000 C   0  0  0  0  0  0  0  0  0  0  0  0
    6.5781    1.8205    0.0000 S   0  0  0  0  0  0  0  0  0  0  0  0
    7.2907    2.2263    0.0000 O   0  0  0  0  0  0  0  0  0  0  0  0
    6.1624    1.1079    0.0000 O   0  0  0  0  0  0  0  0  0  0  0  0
    6.9938    1.1079    0.0000 O   0  0  0  0  0  0  0  0  0  0  0  0
  3  1  2  0
  5  1  1  0
  6  1  1  0
  4  2  2  0
  9  3  1  0
 10  3  1  0
  7  4  1  0
  8  4  1  0
  8  5  2  0
  7  6  2  0
 15  9  2  0
 17  9  1  0
 14 10  1  0
 16 10  2  0
 20 11  1  0
 13 11  1  0
 18 11  2  0
 19 12  2  0
 21 12  1  0
 21 14  2  0
 18 15  1  0
 19 16  1  0
 20 17  2  0
 12 22  1  0
 22 23  1  0
 22 24  2  0
 22 25  2  0
 13 26  1  0
 26 27  1  0
 13 28  1  0
 29 28  1  0
 31 29  1  0
 32 29  2  0
 34 30  2  0
 33 30  1  0
 33 31  2  0
 34 32  1  0
 33 35  1  0
 35 36  1  0
 35 37  2  0
 35 38  2  0
  2 39  1  0
  2 40  1  0
 40 41  1  0
 42 39  1  0
 44 42  1  0
 45 42  2  0
 47 43  2  0
 46 43  1  0
 46 44  2  0
 47 45  1  0
 46 48  1  0
 48 49  1  0
 48 50  2  0
 48 51  2  0
M  CHG  4   2   1  23  -1  36  -1  49  -1
M  END
$$$$
