
     RDKit          2D

 29 32  0  0  0  0  0  0  0  0999 V2000
    0.5230   -0.3020    0.0000 C   0  0  0  0  0  0  0  0  0  0  0  0
    1.2375    0.1105    0.0000 C   0  0  0  0  0  0  0  0  0  0  0  0
    1.9520    0.5230    0.0000 C   0  0  0  0  0  0  0  0  0  0  0  0
    1.9520    1.3480    0.0000 C   0  0  0  0  0  0  0  0  0  0  0  0
    2.6664    1.7605    0.0000 C   0  0  0  0  0  0  0  0  0  0  0  0
    3.3809    1.3480    0.0000 C   0  0  0  0  0  0  0  0  0  0  0  0
    3.3809    0.5230    0.0000 C   0  0  0  0  0  0  0  0  0  0  0  0
    2.6664    0.1105    0.0000 C   0  0  0  0  0  0  0  0  0  0  0  0
    4.0954    0.1105    0.0000 N   0  0  0  0  0  0  0  0  0  0  0  0
    4.0954   -0.7145    0.0000 C   0  0  0  0  0  0  0  0  0  0  0  0
    4.8099   -1.1270    0.0000 C   0  0  0  0  0  0  0  0  0  0  0  0
    5.5243   -0.7145    0.0000 C   0  0  0  0  0  0  0  0  0  0  0  0
    6.2388   -1.1270    0.0000 C   0  0  0  0  0  0  0  0  0  0  0  0
    6.2388   -1.9520    0.0000 C   0  0  0  0  0  0  0  0  0  0  0  0
    5.5243   -2.3645    0.0000 C   0  0  0  0  0  0  0  0  0  0  0  0
    4.8099   -1.9520    0.0000 C   0  0  0  0  0  0  0  0  0  0  0  0
    4.0954   -2.3645    0.0000 N   0  0  0  0  0  0  0  0  0  0  0  0
    3.3809   -1.9520    0.0000 C   0  0  0  0  0  0  0  0  0  0  0  0
    3.3809   -1.1270    0.0000 N   0  0  0  0  0  0  0  0  0  0  0  0
    6.9533   -2.3645    0.0000 O   0  0  0  0  0  0  0  0  0  0  0  0
    7.3658   -3.0789    0.0000 C   0  0  0  0  0  0  0  0  0  0  0  0
    8.1908   -3.0789    0.0000 C   0  0  0  0  0  0  0  0  0  0  0  0
    8.6033   -2.3645    0.0000 O   0  0  0  0  0  0  0  0  0  0  0  0
    9.3177   -1.9520    0.0000 C   0  0  0  0  0  0  0  0  0  0  0  0
    9.3177   -1.1270    0.0000 C   0  0  0  0  0  0  0  0  0  0  0  0
    8.6033   -0.7145    0.0000 O   0  0  0  0  0  0  0  0  0  0  0  0
    8.1908    0.0000    0.0000 C   0  0  0  0  0  0  0  0  0  0  0  0
    7.3658    0.0000    0.0000 C   0  0  0  0  0  0  0  0  0  0  0  0
    6.9533   -0.7145    0.0000 O   0  0  0  0  0  0  0  0  0  0  0  0
  1  2  3  0
  2  3  1  0
  3  4  2  0
  4  5  1  0
  5  6  2  0
  6  7  1  0
  7  8  2  0
  3  8  1  0
  7  9  1  0
  9 10  1  0
 10 11  1  0
 11 12  2  0
 12 13  1  0
 13 14  2  0
 14 15  1  0
 15 16  2  0
 11 16  1  0
 16 17  1  0
 17 18  2  0
 18 19  1  0
 10 19  2  0
 14 20  1  0
 20 21  1  0
 21 22  1  0
 22 23  1  0
 23 24  1  0
 24 25  1  0
 25 26  1  0
 26 27  1  0
 27 28  1  0
 28 29  1  0
 13 29  1  0
M  END
$$$$
