
     RDKit          2D

 23 26  0  0  1  0  0  0  0  0999 V2000
   25.2305  -14.5000    0.0000 O   0  0  0  0  0  0  0  0  0  0  0  0
   20.2542  -18.0546    0.0000 O   0  0  0  0  0  0  0  0  0  0  0  0
   24.7035  -15.5364    0.0000 C   0  0  0  0  0  0  0  0  0  0  0  0
   24.7035  -16.3614    0.0000 C   0  0  0  0  0  0  0  0  0  0  0  0
   23.9891  -16.7739    0.0000 C   0  0  0  0  0  0  0  0  0  0  0  0
   25.4841  -15.2850    0.0000 C   0  0  0  0  0  0  0  0  0  0  0  0
   25.4841  -16.6129    0.0000 C   0  0  0  0  0  0  0  0  0  0  0  0
   25.9656  -15.9489    0.0000 C   0  0  0  0  0  0  0  0  0  0  0  0
   24.7035  -14.7114    0.0000 C   0  0  0  0  0  0  0  0  0  0  0  0
   23.2745  -16.3614    0.0000 C   0  0  0  0  0  0  0  0  0  0  0  0
   23.9891  -15.1239    0.0000 C   0  0  0  0  0  0  0  0  0  0  0  0
   24.0023  -17.6332    0.0000 C   0  0  0  0  0  0  0  0  0  0  0  0
   23.2745  -15.5364    0.0000 C   0  0  0  0  0  0  0  0  0  0  0  0
   22.5238  -16.7796    0.0000 C   0  0  0  0  0  0  0  0  0  0  0  0
   23.2614  -18.0686    0.0000 C   0  0  0  0  0  0  0  0  0  0  0  0
   22.5172  -17.6389    0.0000 C   0  0  0  0  0  0  0  0  0  0  0  0
   26.1524  -14.8012    0.0000 C   0  0  0  0  0  0  0  0  0  0  0  0
   23.9891  -14.2989    0.0000 C   0  0  0  0  0  0  0  0  0  0  0  0
   21.7592  -16.3142    0.0000 C   0  0  0  0  0  0  0  0  0  0  0  0
   21.7455  -18.0924    0.0000 C   0  0  0  0  0  0  0  0  0  0  0  0
   20.9771  -16.7498    0.0000 C   0  0  0  0  0  0  0  0  0  0  0  0
   20.9702  -17.6449    0.0000 C   0  0  0  0  0  0  0  0  0  0  0  0
   26.8207  -14.3175    0.0000 C   0  0  0  0  0  0  0  0  0  0  0  0
  6  1  1  1
  2 22  2  0
  3  4  1  0
  3  6  1  0
  3  9  1  1
  3 11  1  0
  4  5  1  0
  4  7  1  1
  5 10  1  0
  5 12  1  6
  6  8  1  0
  6 17  1  0
  7  8  1  0
  9 18  1  0
 10 13  1  0
 10 14  2  0
 11 13  2  0
 12 15  1  0
 14 16  1  0
 14 19  1  0
 15 16  1  0
 16 20  2  0
 17 23  3  0
 19 21  1  0
 20 22  1  0
 21 22  1  0
M  END
$$$$
