
     RDKit          2D

 23 26  0  0  1  0  0  0  0  0999 V2000
    1.5712    1.6212    0.0000 C   0  0  0  0  0  0  0  0  0  0  0  0
    0.8255    1.2684    0.0000 N   0  0  0  0  0  0  0  0  0  0  0  0
    1.0572    0.3415    0.0000 C   0  0  0  0  0  0  0  0  0  0  0  0
    1.8615    0.5251    0.0000 C   0  0  0  0  0  0  0  0  0  0  0  0
    2.2195    1.2684    0.0000 C   0  0  0  0  0  0  0  0  0  0  0  0
    1.8615    2.0117    0.0000 C   0  0  0  0  0  0  0  0  0  0  0  0
    1.0572    2.1953    0.0000 C   0  0  0  0  0  0  0  0  0  0  0  0
    0.4122    1.6809    0.0000 C   0  0  0  0  0  0  0  0  0  0  0  0
    0.4122    0.8559    0.0000 C   0  0  0  0  0  0  0  0  0  0  0  0
   -0.3023    1.2684    0.0000 O   0  0  0  0  0  0  0  0  0  0  0  0
    3.0445    1.2684    0.0000 O   0  0  0  0  0  0  0  0  0  0  0  0
    3.4570    0.5539    0.0000 C   0  0  0  0  0  0  0  0  0  0  0  0
    3.0445   -0.1606    0.0000 O   0  0  0  0  0  0  0  0  0  0  0  0
    4.2820    0.5539    0.0000 C   0  0  0  0  0  0  0  0  0  0  0  0
    4.6945    1.2684    0.0000 C   0  0  0  0  0  0  0  0  0  0  0  0
    5.5195    1.2684    0.0000 O   0  0  0  0  0  0  0  0  0  0  0  0
    4.6945   -0.1606    0.0000 C   0  0  0  0  0  0  0  0  0  0  0  0
    5.5195   -0.1606    0.0000 C   0  0  0  0  0  0  0  0  0  0  0  0
    5.9320   -0.8750    0.0000 C   0  0  0  0  0  0  0  0  0  0  0  0
    5.5195   -1.5895    0.0000 C   0  0  0  0  0  0  0  0  0  0  0  0
    4.6945   -1.5895    0.0000 C   0  0  0  0  0  0  0  0  0  0  0  0
    4.2820   -0.8750    0.0000 C   0  0  0  0  0  0  0  0  0  0  0  0
    1.5712    0.9155    0.0000 C   0  0  0  0  0  0  0  0  0  0  0  0
  1  2  1  0
  2  3  1  0
  3  4  1  6
  4  5  1  0
  5  6  1  0
  7  6  1  6
  2  7  1  0
  7  8  1  0
  8  9  1  0
  3  9  1  0
  9 10  1  1
  8 10  1  1
  5 11  1  6
 11 12  1  0
 12 13  2  0
 14 12  1  0
 14 15  1  6
 15 16  1  0
 14 17  1  0
 17 18  2  0
 18 19  1  0
 19 20  2  0
 20 21  1  0
 21 22  2  0
 17 22  1  0
  2 23  1  0
M  CHG  1   2   1
M  END
$$$$
