
     RDKit          2D

 37 41  0  0  1  0  0  0  0  0999 V2000
    6.0065   -3.9021    0.0000 C   0  0  0  0  0  0  0  0  0  0  0  0
    5.8633   -3.0896    0.0000 C   0  0  0  0  0  0  0  0  0  0  0  0
    5.0508   -3.2329    0.0000 C   0  0  0  0  0  0  0  0  0  0  0  0
    6.6757   -2.9463    0.0000 C   0  0  0  0  0  0  0  0  0  0  0  0
    7.2060   -3.5783    0.0000 O   0  0  0  0  0  0  0  0  0  0  0  0
    5.7200   -2.2771    0.0000 C   0  0  0  0  0  0  0  0  0  0  0  0
    4.9785   -1.9155    0.0000 C   0  0  0  0  0  0  0  0  0  0  0  0
    5.0933   -1.0985    0.0000 C   0  0  0  0  0  0  0  0  0  0  0  0
    4.5630   -0.4665    0.0000 C   0  0  0  0  0  0  0  0  0  0  0  0
    4.8452    0.3087    0.0000 C   0  0  0  0  0  0  0  0  0  0  0  0
    5.6577    0.4520    0.0000 C   0  0  0  0  0  0  0  0  0  0  0  0
    6.1880   -0.1800    0.0000 C   0  0  0  0  0  0  0  0  0  0  0  0
    5.9058   -0.9553    0.0000 C   0  0  0  0  0  0  0  0  0  0  0  0
    6.2931   -1.6837    0.0000 N   0  0  0  0  0  0  0  0  0  0  0  0
    7.1101   -1.7985    0.0000 C   0  0  0  0  0  0  0  0  0  0  0  0
    7.6180   -1.1484    0.0000 C   0  0  0  0  0  0  0  0  0  0  0  0
    8.4350   -1.2632    0.0000 C   0  0  0  0  0  0  0  0  0  0  0  0
    8.7440   -2.0281    0.0000 O   0  0  0  0  0  0  0  0  0  0  0  0
    7.3089   -0.3835    0.0000 O   0  0  0  0  0  0  0  0  0  0  0  0
    5.9398    1.2272    0.0000 F   0  0  0  0  0  0  0  0  0  0  0  0
    4.3149    0.9407    0.0000 N   0  0  0  0  0  0  0  0  0  0  0  0
    4.5971    1.7160    0.0000 C   0  0  0  0  0  0  0  0  0  0  0  0
    5.4095    1.8592    0.0000 O   0  0  0  0  0  0  0  0  0  0  0  0
    4.0668    2.3479    0.0000 C   0  0  0  0  0  0  0  0  0  0  0  0
    3.7846    3.1232    0.0000 C   0  0  0  0  0  0  0  0  0  0  0  0
    4.5971    2.9799    0.0000 C   0  0  0  0  0  0  0  0  0  0  0  0
    3.3523    1.9354    0.0000 C   0  0  0  0  0  0  0  0  0  0  0  0
    3.3523    1.1104    0.0000 C   0  0  0  0  0  0  0  0  0  0  0  0
    2.6378    0.6979    0.0000 C   0  0  0  0  0  0  0  0  0  0  0  0
    1.9233    1.1104    0.0000 C   0  0  0  0  0  0  0  0  0  0  0  0
    1.9233    1.9354    0.0000 C   0  0  0  0  0  0  0  0  0  0  0  0
    2.6378    2.3479    0.0000 C   0  0  0  0  0  0  0  0  0  0  0  0
    1.1387    2.1904    0.0000 O   0  0  0  0  0  0  0  0  0  0  0  0
    0.6538    1.5229    0.0000 C   0  0  0  0  0  0  0  0  0  0  0  0
    1.1387    0.8555    0.0000 O   0  0  0  0  0  0  0  0  0  0  0  0
   -0.0650    1.9279    0.0000 F   0  0  0  0  0  0  0  0  0  0  0  0
   -0.0650    1.1179    0.0000 F   0  0  0  0  0  0  0  0  0  0  0  0
  1  2  1  0
  2  3  1  0
  2  4  1  0
  4  5  1  0
  2  6  1  0
  6  7  2  0
  7  8  1  0
  8  9  2  0
  9 10  1  0
 10 11  2  0
 11 12  1  0
 12 13  2  0
  8 13  1  0
 13 14  1  0
  6 14  1  0
 14 15  1  0
 15 16  1  0
 16 17  1  0
 17 18  1  0
 16 19  1  1
 11 20  1  0
 10 21  1  0
 21 22  1  0
 22 23  2  0
 22 24  1  0
 24 25  1  0
 25 26  1  0
 24 26  1  0
 24 27  1  0
 27 28  2  0
 28 29  1  0
 29 30  2  0
 30 31  1  0
 31 32  2  0
 27 32  1  0
 31 33  1  0
 33 34  1  0
 34 35  1  0
 30 35  1  0
 34 36  1  0
 34 37  1  0
M  END
$$$$
