
     RDKit          2D

 35 37  0  0  0  0  0  0  0  0999 V2000
   -3.5216    0.4105    0.0000 C   0  0  0  0  0  0  0  0  0  0  0  0
   -3.5216   -0.4144    0.0000 C   0  0  0  0  0  0  0  0  0  0  0  0
   -2.8071   -0.8270    0.0000 N   0  0  0  0  0  0  0  0  0  0  0  0
   -2.0926   -0.4144    0.0000 C   0  0  0  0  0  0  0  0  0  0  0  0
   -2.0926    0.4105    0.0000 C   0  0  0  0  0  0  0  0  0  0  0  0
   -2.8071    0.8231    0.0000 N   0  0  0  0  0  0  0  0  0  0  0  0
   -4.2361    0.8231    0.0000 C   0  0  0  0  0  0  0  0  0  0  0  0
   -4.2361   -0.8270    0.0000 C   0  0  0  0  0  0  0  0  0  0  0  0
   -4.2361    1.6480    0.0000 C   0  0  0  0  0  0  0  0  0  0  0  0
   -4.9507    2.0606    0.0000 C   0  0  0  0  0  0  0  0  0  0  0  0
   -5.6651    1.6480    0.0000 C   0  0  0  0  0  0  0  0  0  0  0  0
   -5.6651    0.8231    0.0000 C   0  0  0  0  0  0  0  0  0  0  0  0
   -4.9507    0.4105    0.0000 C   0  0  0  0  0  0  0  0  0  0  0  0
   -4.9407   -0.4201    0.0000 C   0  0  0  0  0  0  0  0  0  0  0  0
   -5.6552   -0.8326    0.0000 C   0  0  0  0  0  0  0  0  0  0  0  0
   -5.6553   -1.6576    0.0000 C   0  0  0  0  0  0  0  0  0  0  0  0
   -4.9508   -2.0646    0.0000 C   0  0  0  0  0  0  0  0  0  0  0  0
   -4.2362   -1.6520    0.0000 C   0  0  0  0  0  0  0  0  0  0  0  0
   -1.3670    0.8296    0.0000 N   0  0  0  0  0  0  0  0  0  0  0  0
   -0.6567    0.4195    0.0000 C   0  0  0  0  0  0  0  0  0  0  0  0
   -1.3672    1.6480    0.0000 C   0  0  0  0  0  0  0  0  0  0  0  0
   -2.0887    2.0646    0.0000 C   0  0  0  0  0  0  0  0  0  0  0  0
   -0.6596    2.0568    0.0000 C   0  0  0  0  0  0  0  0  0  0  0  0
    0.0399    0.8220    0.0000 C   0  0  0  0  0  0  0  0  0  0  0  0
    0.7436    0.4157    0.0000 C   0  0  0  0  0  0  0  0  0  0  0  0
    1.4437    0.8200    0.0000 C   0  0  0  0  0  0  0  0  0  0  0  0
    2.1457    0.4147    0.0000 O   0  0  0  0  0  0  0  0  0  0  0  0
    2.8465    0.8195    0.0000 C   0  0  0  0  0  0  0  0  0  0  0  0
    3.5481    0.4144    0.0000 C   0  0  0  0  0  0  0  0  0  0  0  0
    4.2493    0.8194    0.0000 N   0  0  0  0  0  0  0  0  0  0  0  0
    4.9507    0.4143    0.0000 S   0  0  0  0  0  0  0  0  0  0  0  0
    3.5482   -0.4143    0.0000 O   0  0  0  0  0  0  0  0  0  0  0  0
    5.6651    0.0018    0.0000 C   0  0  0  0  0  0  0  0  0  0  0  0
    4.5327   -0.3096    0.0000 O   0  0  0  0  0  0  0  0  0  0  0  0
    5.3575    1.1193    0.0000 O   0  0  0  0  0  0  0  0  0  0  0  0
  1  2  1  0
  2  3  2  0
  3  4  1  0
  4  5  2  0
  5  6  1  0
  1  6  2  0
  1  7  1  0
  2  8  1  0
  7  9  2  0
  9 10  1  0
 10 11  2  0
 11 12  1  0
 12 13  2  0
  7 13  1  0
  8 14  2  0
 14 15  1  0
 15 16  2  0
 16 17  1  0
 17 18  2  0
  8 18  1  0
  5 19  1  0
 19 20  1  0
 19 21  1  0
 21 22  1  0
 21 23  1  0
 20 24  1  0
 24 25  1  0
 25 26  1  0
 26 27  1  0
 27 28  1  0
 28 29  1  0
 29 30  1  0
 30 31  1  0
 29 32  2  0
 31 33  1  0
 31 34  2  0
 31 35  2  0
M  END
$$$$
