
     RDKit          2D

  5  4  0  0  0  0  0  0  0  0999 V2000
   -1.0312    0.1105    0.0000 C   0  0  0  0  0  0  0  0  0  0  0  0
   -1.4437    0.8250    0.0000 C   0  0  0  0  0  0  0  0  0  0  0  0
   -0.2062    0.1105    0.0000 N   0  0  0  0  0  0  0  0  0  0  0  0
   -1.0312    1.5394    0.0000 O   0  0  0  0  0  0  0  0  0  0  0  0
   -2.2687    0.8250    0.0000 O   0  0  0  0  0  0  0  0  0  0  0  0
  2  1  1  0
  3  1  1  0
  4  2  2  0
  5  2  1  0
M  CHG  1   5  -1
M  END
$$$$
