
     RDKit          2D

 33 35  0  0  0  0  0  0  0  0999 V2000
    2.6383    0.8102    0.0000 Si  0  0  0  0  0  4  0  0  0  0  0  0
    3.8758    1.5246    0.0000 Si  0  0  0  0  0  4  0  0  0  0  0  0
    1.9238    2.0477    0.0000 Si  0  0  0  0  0  4  0  0  0  0  0  0
    3.4633    0.8102    0.0000 O   0  0  0  0  0  0  0  0  0  0  0  0
    2.6383    1.6352    0.0000 O   0  0  0  0  0  0  0  0  0  0  0  0
   -1.0741    0.0957    0.0000 O   0  0  0  0  0  0  0  0  0  0  0  0
   -1.8991   -1.3332    0.0000 N   0  0  0  0  0  0  0  0  0  0  0  0
   -2.3806   -0.6693    0.0000 N   0  0  0  0  0  0  0  0  0  0  0  0
   -2.3806   -1.9971    0.0000 N   0  0  0  0  0  0  0  0  0  0  0  0
    1.8133    0.8102    0.0000 C   0  0  0  0  0  0  0  0  0  0  0  0
    1.4008    0.0957    0.0000 C   0  0  0  0  0  0  0  0  0  0  0  0
    0.5758    0.0957    0.0000 C   0  0  0  0  0  0  0  0  0  0  0  0
    2.6383   -0.0147    0.0000 C   0  0  0  0  0  0  0  0  0  0  0  0
    1.8133   -0.6187    0.0000 C   0  0  0  0  0  0  0  0  0  0  0  0
    0.1633   -0.6187    0.0000 C   0  0  0  0  0  0  0  0  0  0  0  0
    4.2883    2.2391    0.0000 C   0  0  0  0  0  0  0  0  0  0  0  0
    4.5902    1.1121    0.0000 C   0  0  0  0  0  0  0  0  0  0  0  0
    3.1613    1.9371    0.0000 C   0  0  0  0  0  0  0  0  0  0  0  0
    1.2093    2.4602    0.0000 C   0  0  0  0  0  0  0  0  0  0  0  0
    2.3363    2.7621    0.0000 C   0  0  0  0  0  0  0  0  0  0  0  0
    1.5113    1.3332    0.0000 C   0  0  0  0  0  0  0  0  0  0  0  0
   -0.6616   -0.6187    0.0000 C   0  0  0  0  0  0  0  0  0  0  0  0
    0.5758   -1.3332    0.0000 C   0  0  0  0  0  0  0  0  0  0  0  0
   -1.0741   -1.3332    0.0000 C   0  0  0  0  0  0  0  0  0  0  0  0
    0.1633   -2.0477    0.0000 C   0  0  0  0  0  0  0  0  0  0  0  0
   -0.6616   -2.0477    0.0000 C   0  0  0  0  0  0  0  0  0  0  0  0
    0.5758   -2.7621    0.0000 C   0  0  0  0  0  0  0  0  0  0  0  0
   -3.1612   -0.9207    0.0000 C   0  0  0  0  0  0  0  0  0  0  0  0
   -3.1612   -1.7457    0.0000 C   0  0  0  0  0  0  0  0  0  0  0  0
   -3.8758   -0.5082    0.0000 C   0  0  0  0  0  0  0  0  0  0  0  0
   -3.8758   -2.1582    0.0000 C   0  0  0  0  0  0  0  0  0  0  0  0
   -4.5902   -0.9207    0.0000 C   0  0  0  0  0  0  0  0  0  0  0  0
   -4.5902   -1.7457    0.0000 C   0  0  0  0  0  0  0  0  0  0  0  0
  1  4  1  0
  1  5  1  0
  1 10  1  0
  1 13  1  0
  2  4  1  0
  2 16  1  0
  2 17  1  0
  2 18  1  0
  3  5  1  0
  3 19  1  0
  3 20  1  0
  3 21  1  0
  6 22  1  0
  7  8  1  0
  7  9  1  0
  7 24  1  0
  8 28  2  0
  9 29  2  0
 10 11  1  0
 11 12  1  0
 11 14  1  0
 12 15  1  0
 15 22  2  0
 15 23  1  0
 22 24  1  0
 23 25  2  0
 24 26  2  0
 25 26  1  0
 25 27  1  0
 28 29  1  0
 28 30  1  0
 29 31  1  0
 30 32  2  0
 31 33  2  0
 32 33  1  0
M  END
$$$$
