
     RDKit          2D

 24 23  0  0  0  0  0  0  0  0999 V2000
    6.1875   -5.9240    0.0000 C   0  0  0  0  0  0  0  0  0  0  0  0
    6.3434   -5.1139    0.0000 C   0  0  0  0  0  0  0  0  0  0  0  0
    7.1230   -4.8439    0.0000 O   0  0  0  0  0  0  0  0  0  0  0  0
    7.2789   -4.0337    0.0000 C   0  0  0  0  0  0  0  0  0  0  0  0
    8.0584   -3.7637    0.0000 C   0  0  0  0  0  0  0  0  0  0  0  0
    8.2143   -2.9535    0.0000 P   0  0  0  0  0  0  0  0  0  0  0  0
    7.5907   -2.4135    0.0000 C   0  0  0  0  0  0  0  0  0  0  0  0
    6.8111   -2.6835    0.0000 C   0  0  0  0  0  0  0  0  0  0  0  0
    6.1875   -2.1434    0.0000 O   0  0  0  0  0  0  0  0  0  0  0  0
    5.4079   -2.4135    0.0000 C   0  0  0  0  0  0  0  0  0  0  0  0
    4.7843   -1.8734    0.0000 C   0  0  0  0  0  0  0  0  0  0  0  0
    8.9939   -2.6835    0.0000 C   0  0  0  0  0  0  0  0  0  0  0  0
    9.1498   -1.8734    0.0000 C   0  0  0  0  0  0  0  0  0  0  0  0
    9.9293   -1.6033    0.0000 P   0  0  0  0  0  0  0  0  0  0  0  0
   10.0853   -0.7932    0.0000 C   0  0  0  0  0  0  0  0  0  0  0  0
   10.8648   -0.5231    0.0000 C   0  0  0  0  0  0  0  0  0  0  0  0
   11.0207    0.2870    0.0000 O   0  0  0  0  0  0  0  0  0  0  0  0
   11.8003    0.5570    0.0000 C   0  0  0  0  0  0  0  0  0  0  0  0
   11.9562    1.3672    0.0000 C   0  0  0  0  0  0  0  0  0  0  0  0
   10.5530   -2.1434    0.0000 C   0  0  0  0  0  0  0  0  0  0  0  0
   11.3325   -1.8734    0.0000 C   0  0  0  0  0  0  0  0  0  0  0  0
   11.9562   -2.4135    0.0000 O   0  0  0  0  0  0  0  0  0  0  0  0
   12.7357   -2.1434    0.0000 C   0  0  0  0  0  0  0  0  0  0  0  0
   13.3594   -2.6835    0.0000 C   0  0  0  0  0  0  0  0  0  0  0  0
  1  2  1  0
  2  3  1  0
  3  4  1  0
  4  5  1  0
  5  6  1  0
  6  7  1  0
  7  8  1  0
  8  9  1  0
  9 10  1  0
 10 11  1  0
  6 12  1  0
 12 13  1  0
 13 14  1  0
 14 15  1  0
 15 16  1  0
 16 17  1  0
 17 18  1  0
 18 19  1  0
 14 20  1  0
 20 21  1  0
 21 22  1  0
 22 23  1  0
 23 24  1  0
M  END
$$$$
