
     RDKit          2D

 38 41  0  0  1  0  0  0  0  0999 V2000
    7.8103    1.2375    0.0000 C   0  0  0  0  0  0  0  0  0  0  0  0
    6.9853    1.2375    0.0000 C   0  0  0  0  0  0  0  0  0  0  0  0
    6.5004    1.9049    0.0000 C   0  0  0  0  0  0  0  0  0  0  0  0
    5.7158    1.6500    0.0000 C   0  0  0  0  0  0  0  0  0  0  0  0
    5.7158    0.8250    0.0000 C   0  0  0  0  0  0  0  0  0  0  0  0
    6.5004    0.5701    0.0000 C   0  0  0  0  0  0  0  0  0  0  0  0
    6.7553   -0.2146    0.0000 O   0  0  0  0  0  0  0  0  0  0  0  0
    7.5623   -0.3861    0.0000 C   0  0  0  0  0  0  0  0  0  0  0  0
    8.1143    0.2270    0.0000 O   0  0  0  0  0  0  0  0  0  0  0  0
    7.8172   -1.1707    0.0000 C   0  0  0  0  0  0  0  0  0  0  0  0
    8.6242   -1.3422    0.0000 C   0  0  0  0  0  0  0  0  0  0  0  0
    8.8791   -2.1269    0.0000 C   0  0  0  0  0  0  0  0  0  0  0  0
    8.3271   -2.7400    0.0000 C   0  0  0  0  0  0  0  0  0  0  0  0
    7.5201   -2.5684    0.0000 C   0  0  0  0  0  0  0  0  0  0  0  0
    7.2652   -1.7838    0.0000 C   0  0  0  0  0  0  0  0  0  0  0  0
    4.9543    0.3401    0.0000 C   0  0  0  0  0  0  0  0  0  0  0  0
    4.6993   -0.4445    0.0000 C   0  0  0  0  0  0  0  0  0  0  0  0
    5.1843   -1.1120    0.0000 C   0  0  0  0  0  0  0  0  0  0  0  0
    3.8743   -0.4445    0.0000 C   0  0  0  0  0  0  0  0  0  0  0  0
    3.6194    0.3401    0.0000 C   0  0  0  0  0  0  0  0  0  0  0  0
    2.8579    0.8250    0.0000 C   0  0  0  0  0  0  0  0  0  0  0  0
    2.8579    1.6500    0.0000 C   0  0  0  0  0  0  0  0  0  0  0  0
    2.1434    1.2375    0.0000 C   0  0  0  0  0  0  0  0  0  0  0  0
    1.4676    1.7107    0.0000 C   0  0  0  0  0  0  0  0  0  0  0  0
    1.4676    0.7643    0.0000 C   0  0  0  0  0  0  0  0  0  0  0  0
    3.5724    2.0625    0.0000 C   0  0  0  0  0  0  0  0  0  0  0  0
    4.2868    1.6500    0.0000 C   0  0  0  0  0  0  0  0  0  0  0  0
    5.0013    2.0625    0.0000 C   0  0  0  0  0  0  0  0  0  0  0  0
    5.0013    2.8875    0.0000 O   0  0  0  0  0  0  0  0  0  0  0  0
    4.2868    0.8250    0.0000 C   0  0  0  0  0  0  0  0  0  0  0  0
    5.6065   -0.1651    0.0000 O   0  0  0  0  0  0  0  0  0  0  0  0
    5.4952   -0.9825    0.0000 C   0  0  0  0  0  0  0  0  0  0  0  0
    6.1475   -1.4877    0.0000 O   0  0  0  0  0  0  0  0  0  0  0  0
    5.0610   -1.6840    0.0000 C   0  0  0  0  0  0  0  0  0  0  0  0
    5.8020    2.4705    0.0000 O   0  0  0  0  0  0  0  0  0  0  0  0
    6.5557    2.8060    0.0000 C   0  0  0  0  0  0  0  0  0  0  0  0
    6.6419    3.6265    0.0000 O   0  0  0  0  0  0  0  0  0  0  0  0
    7.2231    2.3211    0.0000 C   0  0  0  0  0  0  0  0  0  0  0  0
  2  1  1  6
  2  3  1  0
  3  4  1  0
  5  4  1  0
  5  6  1  0
  2  6  1  0
  6  7  1  6
  7  8  1  0
  8  9  2  0
  8 10  1  0
 10 11  2  0
 11 12  1  0
 12 13  2  0
 13 14  1  0
 14 15  2  0
 10 15  1  0
  5 16  1  6
 16 17  1  0
 17 18  2  3
 17 19  1  0
 19 20  1  0
 21 20  1  6
 21 22  1  0
 22 23  1  0
 21 23  1  0
 23 24  1  0
 23 25  1  0
 22 26  1  6
 26 27  2  0
 27 28  1  0
  4 28  1  0
 28 29  2  0
 27 30  1  0
 16 31  1  6
 31 32  1  0
 32 33  2  0
 32 34  1  0
  4 35  1  6
 35 36  1  0
 36 37  2  0
 36 38  1  0
M  END
$$$$
