
     RDKit          2D

 20 23  0  0  0  0  0  0  0  0999 V2000
    1.3711   -1.7267    0.0000 C   0  0  0  0  0  0  0  0  0  0  0  0
   -1.8241   -0.6266    0.0000 C   0  0  0  0  0  0  0  0  0  0  0  0
    2.3234    1.3619    0.0000 C   0  0  0  0  0  0  0  0  0  0  0  0
   -0.0051   -1.7038    0.0000 C   0  0  0  0  0  0  0  0  0  0  0  0
   -0.5560   -1.0981    0.0000 C   0  0  0  0  0  0  0  0  0  0  0  0
    1.6502   -0.4427    0.0000 C   0  0  0  0  0  0  0  0  0  0  0  0
    2.1283    0.2307    0.0000 C   0  0  0  0  0  0  0  0  0  0  0  0
    0.6980   -1.2822    0.0000 C   0  0  0  0  0  0  0  0  0  0  0  0
   -1.2762   -0.0346    0.0000 C   0  0  0  0  0  0  0  0  0  0  0  0
    0.8117   -0.4538    0.0000 C   0  0  0  0  0  0  0  0  0  0  0  0
   -0.4621   -0.2620    0.0000 C   0  0  0  0  0  0  0  0  0  0  0  0
   -1.5583    0.7377    0.0000 C   0  0  0  0  0  0  0  0  0  0  0  0
   -0.0722    0.9205    0.0000 C   0  0  0  0  0  0  0  0  0  0  0  0
    1.6533    0.9130    0.0000 C   0  0  0  0  0  0  0  0  0  0  0  0
    0.2636    0.2261    0.0000 C   0  0  0  0  0  0  0  0  0  0  0  0
   -2.3234    0.9934    0.0000 O   0  0  0  0  0  0  0  0  0  0  0  0
   -0.8688    1.1852    0.0000 O   0  0  0  0  0  0  0  0  0  0  0  0
    0.8397    0.7048    0.0000 O   0  0  0  0  0  0  0  0  0  0  0  0
    1.2069    1.6058    0.0000 O   0  0  0  0  0  0  0  0  0  0  0  0
    0.4968    1.1557    0.0000 O   0  0  0  0  0  0  0  0  0  0  0  0
  5  4  1  0
  7  6  1  0
  8  1  1  6
  8  4  1  0
  9  2  1  1
 10  6  1  1
 10  8  1  0
 11  5  1  1
 11  9  1  0
  9 12  1  0
 14  3  1  1
 14  7  1  0
 15 10  1  0
 15 11  1  0
 15 13  1  0
 16 12  1  0
 17 12  1  0
 13 17  1  6
 13 18  1  0
 14 18  1  0
 14 19  1  0
 15 20  1  6
 20 19  1  0
M  END
$$$$
