lycopene
     RDKit          2D

 40 39  0  0  0  0  0  0  0  0999 V2000
   18.5625   10.7171    0.0000 C   0  0  0  0  0  0  0  0  0  0  0  0
   18.1500   10.0026    0.0000 C   0  0  0  0  0  0  0  0  0  0  0  0
   18.5625    9.2881    0.0000 C   0  0  0  0  0  0  0  0  0  0  0  0
   17.3250   10.0026    0.0000 C   0  0  0  0  0  0  0  0  0  0  0  0
   16.9125    9.2881    0.0000 C   0  0  0  0  0  0  0  0  0  0  0  0
   16.0875    9.2881    0.0000 C   0  0  0  0  0  0  0  0  0  0  0  0
   15.6750    8.5737    0.0000 C   0  0  0  0  0  0  0  0  0  0  0  0
   16.0875    7.8592    0.0000 C   0  0  0  0  0  0  0  0  0  0  0  0
   14.8500    8.5737    0.0000 C   0  0  0  0  0  0  0  0  0  0  0  0
   14.4375    7.8592    0.0000 C   0  0  0  0  0  0  0  0  0  0  0  0
   13.6125    7.8592    0.0000 C   0  0  0  0  0  0  0  0  0  0  0  0
   13.2000    7.1447    0.0000 C   0  0  0  0  0  0  0  0  0  0  0  0
   13.6125    6.4302    0.0000 C   0  0  0  0  0  0  0  0  0  0  0  0
   12.3750    7.1447    0.0000 C   0  0  0  0  0  0  0  0  0  0  0  0
   11.9625    6.4302    0.0000 C   0  0  0  0  0  0  0  0  0  0  0  0
   11.1375    6.4302    0.0000 C   0  0  0  0  0  0  0  0  0  0  0  0
   10.7250    5.7158    0.0000 C   0  0  0  0  0  0  0  0  0  0  0  0
   11.1375    5.0013    0.0000 C   0  0  0  0  0  0  0  0  0  0  0  0
    9.9000    5.7158    0.0000 C   0  0  0  0  0  0  0  0  0  0  0  0
    9.4875    5.0013    0.0000 C   0  0  0  0  0  0  0  0  0  0  0  0
    8.6625    5.0013    0.0000 C   0  0  0  0  0  0  0  0  0  0  0  0
    8.2500    4.2868    0.0000 C   0  0  0  0  0  0  0  0  0  0  0  0
    7.4250    4.2868    0.0000 C   0  0  0  0  0  0  0  0  0  0  0  0
    7.0125    5.0013    0.0000 C   0  0  0  0  0  0  0  0  0  0  0  0
    7.0125    3.5724    0.0000 C   0  0  0  0  0  0  0  0  0  0  0  0
    6.1875    3.5724    0.0000 C   0  0  0  0  0  0  0  0  0  0  0  0
    5.7750    2.8579    0.0000 C   0  0  0  0  0  0  0  0  0  0  0  0
    4.9500    2.8579    0.0000 C   0  0  0  0  0  0  0  0  0  0  0  0
    4.5375    3.5724    0.0000 C   0  0  0  0  0  0  0  0  0  0  0  0
    4.5375    2.1434    0.0000 C   0  0  0  0  0  0  0  0  0  0  0  0
    3.7125    2.1434    0.0000 C   0  0  0  0  0  0  0  0  0  0  0  0
    3.3000    1.4289    0.0000 C   0  0  0  0  0  0  0  0  0  0  0  0
    2.4750    1.4289    0.0000 C   0  0  0  0  0  0  0  0  0  0  0  0
    2.0625    2.1434    0.0000 C   0  0  0  0  0  0  0  0  0  0  0  0
    2.0625    0.7145    0.0000 C   0  0  0  0  0  0  0  0  0  0  0  0
    1.2375    0.7145    0.0000 C   0  0  0  0  0  0  0  0  0  0  0  0
    0.8250    0.0000    0.0000 C   0  0  0  0  0  0  0  0  0  0  0  0
    0.0000    0.0000    0.0000 C   0  0  0  0  0  0  0  0  0  0  0  0
   -0.4125   -0.7145    0.0000 C   0  0  0  0  0  0  0  0  0  0  0  0
   -0.4125    0.7145    0.0000 C   0  0  0  0  0  0  0  0  0  0  0  0
  1  2  1  0
  2  3  1  0
  2  4  2  0
  4  5  1  0
  5  6  1  0
  6  7  1  0
  7  8  1  0
  7  9  2  0
  9 10  1  0
 10 11  2  0
 11 12  1  0
 12 13  1  0
 12 14  2  0
 14 15  1  0
 15 16  2  0
 16 17  1  0
 17 18  1  0
 17 19  2  0
 19 20  1  0
 20 21  2  0
 21 22  1  0
 22 23  2  0
 23 24  1  0
 23 25  1  0
 25 26  2  0
 26 27  1  0
 27 28  2  0
 28 29  1  0
 28 30  1  0
 30 31  2  0
 31 32  1  0
 32 33  2  0
 33 34  1  0
 33 35  1  0
 35 36  1  0
 36 37  1  0
 37 38  2  0
 38 39  1  0
 38 40  1  0
M  END
$$$$
