
     RDKit          2D

 16 17  0  0  0  0  0  0  0  0999 V2000
   -1.6577   -0.4756    0.0000 C   0  0  0  0  0  0  0  0  0  0  0  0
   -1.4102   -1.2594    0.0000 C   0  0  0  0  0  0  0  0  0  0  0  0
   -0.5852   -1.2594    0.0000 C   0  0  0  0  0  0  0  0  0  0  0  0
   -0.3376   -0.4756    0.0000 C   0  0  0  0  0  0  0  0  0  0  0  0
   -0.9977    0.0193    0.0000 N   0  0  0  0  0  0  0  0  0  0  0  0
   -2.4415   -0.1868    0.0000 O   0  0  0  0  0  0  0  0  0  0  0  0
    0.3635   -0.0631    0.0000 C   0  0  0  0  0  0  0  0  0  0  0  0
    1.0647   -0.4756    0.0000 N   0  0  0  0  0  0  0  0  0  0  0  0
    0.3635    0.7619    0.0000 O   0  0  0  0  0  0  0  0  0  0  0  0
    1.3194   -1.2604    0.0000 C   0  0  0  0  0  0  0  0  0  0  0  0
    2.1444   -1.2607    0.0000 S   0  0  0  0  0  0  0  0  0  0  0  0
    2.3998   -0.4761    0.0000 C   0  0  0  0  0  0  0  0  0  0  0  0
    1.7324    0.0090    0.0000 C   0  0  0  0  0  0  0  0  0  0  0  0
    1.7328    0.8443    0.0000 C   0  0  0  0  0  0  0  0  0  0  0  0
    2.4415    1.2529    0.0000 O   0  0  0  0  0  0  0  0  0  0  0  0
    1.0125    1.2607    0.0000 O   0  0  0  0  0  0  0  0  0  0  0  0
  1  2  1  0
  2  3  1  0
  3  4  1  0
  4  5  1  0
  1  5  1  0
  1  6  2  0
  7  8  1  0
  4  7  1  6
  7  9  2  0
  8 10  1  0
 10 11  1  0
 11 12  1  0
 12 13  1  0
  8 13  1  0
 13 14  1  6
 14 15  1  0
 14 16  2  0
M  END
$$$$
