
     RDKit          2D

 16 18  0  0  0  0  0  0  0  0999 V2000
   12.6378  -10.8093    0.0000 C   0  0  0  0  0  0  0  0  0  0  0  0
   13.3523  -10.3968    0.0000 C   0  0  0  0  0  0  0  0  0  0  0  0
   13.3523   -9.5718    0.0000 C   0  0  0  0  0  0  0  0  0  0  0  0
   12.6378   -9.1593    0.0000 N   0  0  0  0  0  0  0  0  0  0  0  0
   11.9231   -9.5718    0.0000 C   0  0  0  0  0  0  0  0  0  0  0  0
   11.9231  -10.3968    0.0000 N   0  0  0  0  0  0  0  0  0  0  0  0
   14.1370   -9.3169    0.0000 N   0  0  0  0  0  0  0  0  0  0  0  0
   14.6215   -9.9843    0.0000 C   0  0  0  0  0  0  0  0  0  0  0  0
   14.1370  -10.6517    0.0000 N   0  0  0  0  0  0  0  0  0  0  0  0
   12.6378  -11.6343    0.0000 N   0  0  0  0  0  0  0  0  0  0  0  0
   13.3523  -12.0468    0.0000 C   0  0  0  0  0  0  0  0  0  0  0  0
   13.3523  -12.8718    0.0000 C   0  0  0  0  0  0  0  0  0  0  0  0
   12.6849  -13.3568    0.0000 C   0  0  0  0  0  0  0  0  0  0  0  0
   12.9399  -14.1416    0.0000 C   0  0  0  0  0  0  0  0  0  0  0  0
   13.7648  -14.1416    0.0000 C   0  0  0  0  0  0  0  0  0  0  0  0
   14.0198  -13.3568    0.0000 O   0  0  0  0  0  0  0  0  0  0  0  0
  1  2  2  0
  1  6  1  0
  1 10  1  0
  2  3  1  0
  2  9  1  0
  3  4  2  0
  3  7  1  0
  4  5  1  0
  5  6  2  0
  7  8  2  0
  8  9  1  0
 10 11  1  0
 11 12  1  0
 12 13  2  0
 12 16  1  0
 13 14  1  0
 14 15  2  0
 15 16  1  0
M  END
$$$$
