
     RDKit          2D

 26 29  0  0  0  0  0  0  0  0999 V2000
    0.2760   -6.4498    0.0000 C   0  0  0  0  0  0  0  0  0  0  0  0
   -0.4039   -5.9825    0.0000 C   0  0  0  0  0  0  0  0  0  0  0  0
   -0.3392   -5.1601    0.0000 S   0  0  0  0  0  0  0  0  0  0  0  0
    0.4832   -5.2248    0.0000 O   0  0  0  0  0  0  0  0  0  0  0  0
   -1.1617   -5.0953    0.0000 O   0  0  0  0  0  0  0  0  0  0  0  0
   -0.2745   -4.3376    0.0000 N   0  0  0  0  0  0  0  0  0  0  0  0
   -0.8103   -3.7103    0.0000 C   0  0  0  0  0  0  0  0  0  0  0  0
   -0.1830   -3.1745    0.0000 C   0  0  0  0  0  0  0  0  0  0  0  0
    0.3528   -3.8018    0.0000 C   0  0  0  0  0  0  0  0  0  0  0  0
   -0.5575   -2.4394    0.0000 C   0  0  0  0  0  0  0  0  0  0  0  0
   -1.3814   -2.3962    0.0000 C   0  0  0  0  0  0  0  0  0  0  0  0
   -2.2052   -2.3530    0.0000 N   0  0  0  0  0  0  0  0  0  0  0  0
    0.3020   -2.5070    0.0000 N   0  0  0  0  0  0  0  0  0  0  0  0
    0.0470   -1.7224    0.0000 C   0  0  0  0  0  0  0  0  0  0  0  0
    0.7145   -1.2375    0.0000 C   0  0  0  0  0  0  0  0  0  0  0  0
    1.3819   -1.7224    0.0000 C   0  0  0  0  0  0  0  0  0  0  0  0
    1.1270   -2.5070    0.0000 N   0  0  0  0  0  0  0  0  0  0  0  0
    0.7145   -0.4125    0.0000 C   0  0  0  0  0  0  0  0  0  0  0  0
    0.0000    0.0000    0.0000 C   0  0  0  0  0  0  0  0  0  0  0  0
   -0.7846   -0.2549    0.0000 C   0  0  0  0  0  0  0  0  0  0  0  0
   -1.2695    0.4125    0.0000 C   0  0  0  0  0  0  0  0  0  0  0  0
   -0.7846    1.0799    0.0000 N   0  0  0  0  0  0  0  0  0  0  0  0
    0.0000    0.8250    0.0000 C   0  0  0  0  0  0  0  0  0  0  0  0
    0.7145    1.2375    0.0000 N   0  0  0  0  0  0  0  0  0  0  0  0
    1.4289    0.8250    0.0000 C   0  0  0  0  0  0  0  0  0  0  0  0
    1.4289    0.0000    0.0000 N   0  0  0  0  0  0  0  0  0  0  0  0
  1  2  1  0
  2  3  1  0
  3  4  2  0
  3  5  2  0
  3  6  1  0
  6  7  1  0
  7  8  1  0
  8  9  1  0
  6  9  1  0
  8 10  1  0
 10 11  1  0
 11 12  3  0
  8 13  1  0
 13 14  1  0
 14 15  2  0
 15 16  1  0
 16 17  2  0
 13 17  1  0
 15 18  1  0
 18 19  2  0
 19 20  1  0
 20 21  2  0
 21 22  1  0
 22 23  1  0
 19 23  1  0
 23 24  2  0
 24 25  1  0
 25 26  2  0
 18 26  1  0
M  END
$$$$
