
     RDKit          2D

 34 37  0  0  0  0  0  0  0  0999 V2000
    2.4434   -0.2765    0.0000 C   0  0  0  0  0  0  0  0  0  0  0  0
    2.9289   -0.9462    0.0000 N   0  0  0  0  0  0  0  0  0  0  0  0
    2.9289    0.3930    0.0000 N   0  0  0  0  0  0  0  0  0  0  0  0
    3.7151    0.1357    0.0000 C   0  0  0  0  0  0  0  0  0  0  0  0
    3.7151   -0.6841    0.0000 C   0  0  0  0  0  0  0  0  0  0  0  0
   -4.5690   -0.9899    0.0000 C   0  0  0  0  0  0  0  0  0  0  0  0
   -4.5690   -1.8149    0.0000 C   0  0  0  0  0  0  0  0  0  0  0  0
   -0.0315   -0.2765    0.0000 N   0  0  0  0  0  0  0  0  0  0  0  0
    1.6184   -0.2765    0.0000 C   0  0  0  0  0  0  0  0  0  0  0  0
   -3.7440   -0.9899    0.0000 C   0  0  0  0  0  0  0  0  0  0  0  0
   -5.2824   -2.2276    0.0000 O   0  0  0  0  0  0  0  0  0  0  0  0
    1.2060   -0.9899    0.0000 C   0  0  0  0  0  0  0  0  0  0  0  0
    1.2060    0.4366    0.0000 C   0  0  0  0  0  0  0  0  0  0  0  0
   -3.3316   -0.2765    0.0000 C   0  0  0  0  0  0  0  0  0  0  0  0
   -3.3316   -1.7033    0.0000 C   0  0  0  0  0  0  0  0  0  0  0  0
    0.3810   -0.9899    0.0000 C   0  0  0  0  0  0  0  0  0  0  0  0
    0.3810    0.4366    0.0000 C   0  0  0  0  0  0  0  0  0  0  0  0
    2.6763    1.1792    0.0000 C   0  0  0  0  0  0  0  0  0  0  0  0
   -0.8565   -0.2765    0.0000 C   0  0  0  0  0  0  0  0  0  0  0  0
   -3.8556   -2.2276    0.0000 O   0  0  0  0  0  0  0  0  0  0  0  0
   -2.0939   -0.9899    0.0000 C   0  0  0  0  0  0  0  0  0  0  0  0
   -2.5066   -0.2765    0.0000 C   0  0  0  0  0  0  0  0  0  0  0  0
   -2.5066   -1.7033    0.0000 C   0  0  0  0  0  0  0  0  0  0  0  0
   -1.2689   -0.9899    0.0000 C   0  0  0  0  0  0  0  0  0  0  0  0
    4.4285    0.5531    0.0000 C   0  0  0  0  0  0  0  0  0  0  0  0
   -5.3892   -0.9899    0.0000 C   0  0  0  0  0  0  0  0  0  0  0  0
   -4.5690   -0.1600    0.0000 C   0  0  0  0  0  0  0  0  0  0  0  0
    4.4285   -1.1015    0.0000 C   0  0  0  0  0  0  0  0  0  0  0  0
    4.0354    1.6159    0.0000 O   0  0  0  0  0  0  0  0  0  0  0  0
    3.2296    1.7908    0.0000 C   0  0  0  0  0  0  0  0  0  0  0  0
    4.5885    2.2276    0.0000 C   0  0  0  0  0  0  0  0  0  0  0  0
    5.1418    0.1357    0.0000 C   0  0  0  0  0  0  0  0  0  0  0  0
    5.1418   -0.6841    0.0000 C   0  0  0  0  0  0  0  0  0  0  0  0
    5.3892    2.0576    0.0000 C   0  0  0  0  0  0  0  0  0  0  0  0
  2  1  2  0
  3  1  1  0
  4  3  1  0
  5  2  1  0
  6 10  1  0
  7  6  1  0
  8 17  1  0
  9  1  1  0
 10 15  2  0
 11  7  2  0
 12  9  1  0
 13  9  1  0
 14 22  2  0
 15 23  1  0
 16 12  1  0
 17 13  1  0
 18  3  1  0
 19  8  1  0
 20  7  1  0
 21 24  1  0
 22 21  1  0
 23 21  2  0
 24 19  1  0
 25  4  2  0
 26  6  1  0
 27  6  1  0
 28  5  2  0
 29 30  1  0
 30 18  1  0
 31 29  1  0
 32 25  1  0
 33 28  1  0
 34 31  1  0
  4  5  1  0
  8 16  1  0
 32 33  2  0
 14 10  1  0
M  END
$$$$
