
     RDKit          2D

 20 22  0  0  0  0  0  0  0  0999 V2000
   -1.8000    0.9070    0.0000 C   0  0  0  0  0  0  0  0  0  0  0  0
   -0.7221    0.0936    0.0000 C   0  0  0  0  0  0  0  0  0  0  0  0
   -1.2416    0.5303    0.0000 C   0  0  0  0  0  0  0  0  0  0  0  0
   -2.2291    0.5303    0.0000 C   0  0  0  0  0  0  0  0  0  0  0  0
   -2.3731    1.3549    0.0000 N   0  0  0  0  0  0  0  0  0  0  0  0
   -0.8600    0.9225    0.0000 C   0  0  0  0  0  0  0  0  0  0  0  0
   -2.7567   -0.1937    0.0000 C   0  0  0  0  0  0  0  0  0  0  0  0
   -2.1289    0.1866    0.0000 C   0  0  0  0  0  0  0  0  0  0  0  0
   -2.4604    2.3474    0.0000 C   0  0  0  0  0  0  0  0  0  0  0  0
   -0.5134   -0.6963    0.0000 O   0  0  0  0  0  0  0  0  0  0  0  0
    0.1979   -1.1066    0.0000 C   0  0  0  0  0  0  0  0  0  0  0  0
    0.9143   -0.6980    0.0000 C   0  0  0  0  0  0  0  0  0  0  0  0
    0.1960   -1.9318    0.0000 O   0  0  0  0  0  0  0  0  0  0  0  0
    1.6286   -1.1101    0.0000 C   0  0  0  0  0  0  0  0  0  0  0  0
    0.9163    0.1273    0.0000 O   0  0  0  0  0  0  0  0  0  0  0  0
    1.6288   -1.9351    0.0000 C   0  0  0  0  0  0  0  0  0  0  0  0
    2.3434   -2.3474    0.0000 C   0  0  0  0  0  0  0  0  0  0  0  0
    3.0577   -1.9347    0.0000 C   0  0  0  0  0  0  0  0  0  0  0  0
    3.0575   -1.1096    0.0000 C   0  0  0  0  0  0  0  0  0  0  0  0
    2.3430   -0.6974    0.0000 C   0  0  0  0  0  0  0  0  0  0  0  0
  2  3  1  0
  4  3  1  6
  4  5  1  0
  2 10  1  6
  5  1  1  0
 10 11  1  0
  1  6  1  1
 11 12  1  0
  6  2  1  0
 11 13  2  0
  4  7  1  0
 12 14  1  0
  1  8  1  0
 12 15  1  0
  7  8  1  0
  5  9  1  0
 14 16  2  0
 14 20  1  0
 16 17  1  0
 17 18  2  0
 18 19  1  0
 19 20  2  0
M  END
$$$$
