
     RDKit          2D

 10  9  0  0  0  0  0  0  0  0999 V2000
    4.5293   -1.0725    0.0000 C   0  0  0  0  0  0  0  0  0  0  0  0
    3.8148    0.1650    0.0000 C   0  0  0  0  0  0  0  0  0  0  0  0
    5.2437    0.1650    0.0000 C   0  0  0  0  0  0  0  0  0  0  0  0
    5.2437   -1.4850    0.0000 C   0  0  0  0  0  0  0  0  0  0  0  0
    3.8148    0.9900    0.0000 C   0  0  0  0  0  0  0  0  0  0  0  0
    5.2437    0.9900    0.0000 C   0  0  0  0  0  0  0  0  0  0  0  0
    4.5293   -0.2475    0.0000 N   0  0  0  0  0  0  0  0  0  0  0  0
    5.2437   -2.3100    0.0000 O   0  0  0  0  0  0  0  0  0  0  0  0
    3.1003    1.4025    0.0000 O   0  0  0  0  0  0  0  0  0  0  0  0
    5.9582    1.4025    0.0000 O   0  0  0  0  0  0  0  0  0  0  0  0
  4  1  1  0
  5  2  1  0
  6  3  1  0
  7  1  1  0
  7  2  1  0
  7  3  1  0
  8  4  1  0
  9  5  1  0
 10  6  1  0
M  END
$$$$
