
     RDKit          2D

 22 23  0  0  0  0  0  0  0  0999 V2000
    1.5099    2.9980    0.0000 C   0  0  0  0  0  0  0  0  0  0  0  0
    6.0474    5.1414    0.0000 C   0  0  0  0  0  0  0  0  0  0  0  0
    6.0474    3.7125    0.0000 C   0  0  0  0  0  0  0  0  0  0  0  0
    2.3349    2.9980    0.0000 C   0  0  0  0  0  0  0  0  0  0  0  0
    3.5724    1.2375    0.0000 C   0  0  0  0  0  0  0  0  0  0  0  0
    3.5724    6.1875    0.0000 C   0  0  0  0  0  0  0  0  0  0  0  0
    4.2868    1.6500    0.0000 C   0  0  0  0  0  0  0  0  0  0  0  0
    2.8579    1.6500    0.0000 C   0  0  0  0  0  0  0  0  0  0  0  0
    2.8579    5.7750    0.0000 C   0  0  0  0  0  0  0  0  0  0  0  0
    4.2868    5.7750    0.0000 C   0  0  0  0  0  0  0  0  0  0  0  0
    4.2868    2.4750    0.0000 C   0  0  0  0  0  0  0  0  0  0  0  0
    2.8579    2.4750    0.0000 C   0  0  0  0  0  0  0  0  0  0  0  0
    2.8579    4.9500    0.0000 C   0  0  0  0  0  0  0  0  0  0  0  0
    4.2868    4.9500    0.0000 C   0  0  0  0  0  0  0  0  0  0  0  0
    4.3974    3.7125    0.0000 C   0  0  0  0  0  0  0  0  0  0  0  0
    4.8099    4.4270    0.0000 C   0  0  0  0  0  0  0  0  0  0  0  0
    3.5724    2.8875    0.0000 C   0  0  0  0  0  0  0  0  0  0  0  0
    3.5724    4.5375    0.0000 C   0  0  0  0  0  0  0  0  0  0  0  0
    2.7474    3.7125    0.0000 C   0  0  0  0  0  0  0  0  0  0  0  0
    3.5724    3.7125    0.0000 C   0  0  0  0  0  0  0  0  0  0  0  0
    5.6349    4.4270    0.0000 N   0  0  0  0  0  0  0  0  0  0  0  0
    2.3349    4.4270    0.0000 O   0  0  0  0  0  0  0  0  0  0  0  0
  4  1  1  0
  7  5  2  0
  8  5  1  0
  9  6  2  0
 10  6  1  0
 11  7  1  0
 12  8  2  0
 13  9  1  0
 14 10  2  0
 16 15  1  0
 17 11  2  0
 17 12  1  0
 18 13  2  0
 18 14  1  0
 19  4  1  0
 20 15  1  0
 20 17  1  0
 20 18  1  0
 20 19  1  0
 21  2  1  0
 21  3  1  0
 21 16  1  0
 22 19  2  0
M  END
$$$$
