
     RDKit          2D

174173  0  0  0  0  0  0  0  0999 V2000
   -8.6625    5.3585    0.0000 C   0  0  0  0  0  0  0  0  0  0  0  0
   -8.6625    6.7874    0.0000 C   0  0  0  0  0  0  0  0  0  0  0  0
   -0.8250    3.2151    0.0000 C   0  0  0  0  0  0  0  0  0  0  0  0
   -2.0625    3.9295    0.0000 C   0  0  0  0  0  0  0  0  0  0  0  0
    3.7125   -0.3572    0.0000 C   0  0  0  0  0  0  0  0  0  0  0  0
    3.7125    1.0717    0.0000 C   0  0  0  0  0  0  0  0  0  0  0  0
    2.8875   -7.5019    0.0000 C   0  0  0  0  0  0  0  0  0  0  0  0
    1.6500   -6.7874    0.0000 C   0  0  0  0  0  0  0  0  0  0  0  0
   -4.9500  -11.0742    0.0000 C   0  0  0  0  0  0  0  0  0  0  0  0
   -4.9500   -9.6453    0.0000 C   0  0  0  0  0  0  0  0  0  0  0  0
    4.1250    7.5019    0.0000 C   0  0  0  0  0  0  0  0  0  0  0  0
    4.1250    6.0730    0.0000 C   0  0  0  0  0  0  0  0  0  0  0  0
    4.9500   -1.0717    0.0000 C   0  0  0  0  0  0  0  0  0  0  0  0
    4.6088   -0.0216    0.0000 C   0  0  0  0  0  0  0  0  0  0  0  0
    2.8875  -11.7887    0.0000 C   0  0  0  0  0  0  0  0  0  0  0  0
    1.6500  -11.0742    0.0000 C   0  0  0  0  0  0  0  0  0  0  0  0
   -5.7750    8.9308    0.0000 C   0  0  0  0  0  0  0  0  0  0  0  0
   -4.5375    9.6453    0.0000 C   0  0  0  0  0  0  0  0  0  0  0  0
   -2.4750    4.6440    0.0000 C   0  0  0  0  0  0  0  0  0  0  0  0
   -3.7125    3.9295    0.0000 C   0  0  0  0  0  0  0  0  0  0  0  0
    6.6000    4.6440    0.0000 C   0  0  0  0  0  0  0  0  0  0  0  0
    6.6000    3.2151    0.0000 C   0  0  0  0  0  0  0  0  0  0  0  0
    2.4750   -3.9295    0.0000 C   0  0  0  0  0  0  0  0  0  0  0  0
    2.4750   -2.5006    0.0000 C   0  0  0  0  0  0  0  0  0  0  0  0
   -0.8250  -12.5032    0.0000 C   0  0  0  0  0  0  0  0  0  0  0  0
   -2.0625  -11.7887    0.0000 C   0  0  0  0  0  0  0  0  0  0  0  0
    1.2375    2.5006    0.0000 C   0  0  0  0  0  0  0  0  0  0  0  0
    1.2375    3.9295    0.0000 C   0  0  0  0  0  0  0  0  0  0  0  0
    7.8375   -3.2151    0.0000 C   0  0  0  0  0  0  0  0  0  0  0  0
    7.8375   -4.6440    0.0000 C   0  0  0  0  0  0  0  0  0  0  0  0
    0.0000   -6.7874    0.0000 C   0  0  0  0  0  0  0  0  0  0  0  0
    1.2375   -7.5019    0.0000 C   0  0  0  0  0  0  0  0  0  0  0  0
   -7.4250   10.3598    0.0000 C   0  0  0  0  0  0  0  0  0  0  0  0
   -0.8250    7.5019    0.0000 C   0  0  0  0  0  0  0  0  0  0  0  0
    7.4250    1.7861    0.0000 C   0  0  0  0  0  0  0  0  0  0  0  0
    5.3625   -7.5019    0.0000 C   0  0  0  0  0  0  0  0  0  0  0  0
   -4.9500   -6.7874    0.0000 C   0  0  0  0  0  0  0  0  0  0  0  0
   -7.0125   11.0742    0.0000 C   0  0  0  0  0  0  0  0  0  0  0  0
   -1.2375    8.2164    0.0000 C   0  0  0  0  0  0  0  0  0  0  0  0
    7.8375    2.5006    0.0000 C   0  0  0  0  0  0  0  0  0  0  0  0
    6.1875   -7.5019    0.0000 C   0  0  0  0  0  0  0  0  0  0  0  0
   -5.7750   -6.7874    0.0000 C   0  0  0  0  0  0  0  0  0  0  0  0
   -7.0125    9.6453    0.0000 C   0  0  0  0  0  0  0  0  0  0  0  0
    0.0000    7.5019    0.0000 C   0  0  0  0  0  0  0  0  0  0  0  0
    7.8375    1.0717    0.0000 C   0  0  0  0  0  0  0  0  0  0  0  0
    4.9500   -8.2164    0.0000 C   0  0  0  0  0  0  0  0  0  0  0  0
   -4.5375   -7.5019    0.0000 C   0  0  0  0  0  0  0  0  0  0  0  0
   -7.4250   11.7887    0.0000 C   0  0  0  0  0  0  0  0  0  0  0  0
   -2.0625    8.2164    0.0000 C   0  0  0  0  0  0  0  0  0  0  0  0
    7.4250    3.2151    0.0000 C   0  0  0  0  0  0  0  0  0  0  0  0
    6.6000   -6.7874    0.0000 C   0  0  0  0  0  0  0  0  0  0  0  0
   -6.1875   -6.0730    0.0000 C   0  0  0  0  0  0  0  0  0  0  0  0
   -7.4250    6.0730    0.0000 C   0  0  0  0  0  0  0  0  0  0  0  0
   -0.8250    4.6440    0.0000 C   0  0  0  0  0  0  0  0  0  0  0  0
    4.9500    0.3572    0.0000 C   0  0  0  0  0  0  0  0  0  0  0  0
    2.8875   -6.0730    0.0000 C   0  0  0  0  0  0  0  0  0  0  0  0
   -3.7125  -10.3598    0.0000 C   0  0  0  0  0  0  0  0  0  0  0  0
    2.8875    6.7874    0.0000 C   0  0  0  0  0  0  0  0  0  0  0  0
    6.1875   -0.3572    0.0000 C   0  0  0  0  0  0  0  0  0  0  0  0
    2.8875  -10.3598    0.0000 C   0  0  0  0  0  0  0  0  0  0  0  0
   -4.5375    8.2164    0.0000 C   0  0  0  0  0  0  0  0  0  0  0  0
   -3.7125    5.3585    0.0000 C   0  0  0  0  0  0  0  0  0  0  0  0
    5.3625    3.9295    0.0000 C   0  0  0  0  0  0  0  0  0  0  0  0
    3.7125   -3.2151    0.0000 C   0  0  0  0  0  0  0  0  0  0  0  0
   -0.8250  -11.0742    0.0000 C   0  0  0  0  0  0  0  0  0  0  0  0
    2.4750    3.2151    0.0000 C   0  0  0  0  0  0  0  0  0  0  0  0
    6.6000   -3.9295    0.0000 C   0  0  0  0  0  0  0  0  0  0  0  0
    0.0000   -8.2164    0.0000 C   0  0  0  0  0  0  0  0  0  0  0  0
   -8.2500    6.0730    0.0000 C   0  0  0  0  0  0  0  0  0  0  0  0
   -1.2375    3.9295    0.0000 C   0  0  0  0  0  0  0  0  0  0  0  0
    4.1250    0.3572    0.0000 C   0  0  0  0  0  0  0  0  0  0  0  0
    2.4750   -6.7874    0.0000 C   0  0  0  0  0  0  0  0  0  0  0  0
   -4.5375  -10.3598    0.0000 C   0  0  0  0  0  0  0  0  0  0  0  0
    3.7125    6.7874    0.0000 C   0  0  0  0  0  0  0  0  0  0  0  0
    5.3625   -0.3572    0.0000 C   0  0  0  0  0  0  0  0  0  0  0  0
    2.4750  -11.0742    0.0000 C   0  0  0  0  0  0  0  0  0  0  0  0
   -4.9500    8.9308    0.0000 C   0  0  0  0  0  0  0  0  0  0  0  0
   -3.3000    4.6440    0.0000 C   0  0  0  0  0  0  0  0  0  0  0  0
    6.1875    3.9295    0.0000 C   0  0  0  0  0  0  0  0  0  0  0  0
    2.8875   -3.2151    0.0000 C   0  0  0  0  0  0  0  0  0  0  0  0
   -1.2375  -11.7887    0.0000 C   0  0  0  0  0  0  0  0  0  0  0  0
    1.6500    3.2151    0.0000 C   0  0  0  0  0  0  0  0  0  0  0  0
    7.4250   -3.9295    0.0000 C   0  0  0  0  0  0  0  0  0  0  0  0
    0.4125   -7.5019    0.0000 C   0  0  0  0  0  0  0  0  0  0  0  0
   -7.4250    8.9308    0.0000 C   0  0  0  0  0  0  0  0  0  0  0  0
    0.4125    6.7874    0.0000 C   0  0  0  0  0  0  0  0  0  0  0  0
    7.4250    0.3572    0.0000 C   0  0  0  0  0  0  0  0  0  0  0  0
    4.1250   -8.2164    0.0000 C   0  0  0  0  0  0  0  0  0  0  0  0
   -3.7125   -7.5019    0.0000 C   0  0  0  0  0  0  0  0  0  0  0  0
   -7.0125    6.7874    0.0000 C   0  0  0  0  0  0  0  0  0  0  0  0
   -1.2375    5.3585    0.0000 C   0  0  0  0  0  0  0  0  0  0  0  0
    5.3625    1.0717    0.0000 C   0  0  0  0  0  0  0  0  0  0  0  0
    3.7125   -6.0730    0.0000 C   0  0  0  0  0  0  0  0  0  0  0  0
   -3.3000   -9.6453    0.0000 C   0  0  0  0  0  0  0  0  0  0  0  0
    2.4750    6.0730    0.0000 C   0  0  0  0  0  0  0  0  0  0  0  0
    6.6000   -1.0717    0.0000 C   0  0  0  0  0  0  0  0  0  0  0  0
    2.4750   -9.6453    0.0000 C   0  0  0  0  0  0  0  0  0  0  0  0
   -4.9500    7.5019    0.0000 C   0  0  0  0  0  0  0  0  0  0  0  0
   -3.3000    6.0730    0.0000 C   0  0  0  0  0  0  0  0  0  0  0  0
    4.9500    3.2151    0.0000 C   0  0  0  0  0  0  0  0  0  0  0  0
    4.1250   -3.9295    0.0000 C   0  0  0  0  0  0  0  0  0  0  0  0
   -1.2375  -10.3598    0.0000 C   0  0  0  0  0  0  0  0  0  0  0  0
    2.8875    3.9295    0.0000 C   0  0  0  0  0  0  0  0  0  0  0  0
    6.1875   -3.2151    0.0000 C   0  0  0  0  0  0  0  0  0  0  0  0
    0.4125   -8.9308    0.0000 C   0  0  0  0  0  0  0  0  0  0  0  0
   -7.0125    8.2164    0.0000 C   0  0  0  0  0  0  0  0  0  0  0  0
    1.2375    6.7874    0.0000 C   0  0  0  0  0  0  0  0  0  0  0  0
    7.8375   -0.3572    0.0000 C   0  0  0  0  0  0  0  0  0  0  0  0
    3.7125   -8.9308    0.0000 C   0  0  0  0  0  0  0  0  0  0  0  0
   -0.8250    6.0730    0.0000 C   0  0  0  0  0  0  0  0  0  0  0  0
    6.1875    1.0717    0.0000 C   0  0  0  0  0  0  0  0  0  0  0  0
    4.1250   -6.7874    0.0000 C   0  0  0  0  0  0  0  0  0  0  0  0
   -3.7125   -8.9308    0.0000 C   0  0  0  0  0  0  0  0  0  0  0  0
   -6.1875    6.7874    0.0000 C   0  0  0  0  0  0  0  0  0  0  0  0
    2.8875    5.3585    0.0000 C   0  0  0  0  0  0  0  0  0  0  0  0
    6.1875   -1.7861    0.0000 C   0  0  0  0  0  0  0  0  0  0  0  0
    1.6500   -9.6453    0.0000 C   0  0  0  0  0  0  0  0  0  0  0  0
   -2.4750    6.0730    0.0000 C   0  0  0  0  0  0  0  0  0  0  0  0
    5.3625    2.5006    0.0000 C   0  0  0  0  0  0  0  0  0  0  0  0
    3.7125   -4.6440    0.0000 C   0  0  0  0  0  0  0  0  0  0  0  0
   -2.0625  -10.3598    0.0000 C   0  0  0  0  0  0  0  0  0  0  0  0
   -4.5375    6.7874    0.0000 C   0  0  0  0  0  0  0  0  0  0  0  0
    3.7125    3.9295    0.0000 C   0  0  0  0  0  0  0  0  0  0  0  0
    5.3625   -3.2151    0.0000 C   0  0  0  0  0  0  0  0  0  0  0  0
    0.0000   -9.6453    0.0000 C   0  0  0  0  0  0  0  0  0  0  0  0
   -3.3000   -6.7874    0.0000 C   0  0  0  0  0  0  0  0  0  0  0  0
   -7.0125   12.5032    0.0000 N   0  0  0  0  0  0  0  0  0  0  0  0
   -2.4750    8.9308    0.0000 N   0  0  0  0  0  0  0  0  0  0  0  0
    7.8375    3.9295    0.0000 N   0  0  0  0  0  0  0  0  0  0  0  0
    7.4250   -6.7874    0.0000 N   0  0  0  0  0  0  0  0  0  0  0  0
   -7.0125   -6.0730    0.0000 N   0  0  0  0  0  0  0  0  0  0  0  0
   -8.2500    8.9308    0.0000 N   0  0  0  0  0  0  0  0  0  0  0  0
    0.0000    6.0730    0.0000 N   0  0  0  0  0  0  0  0  0  0  0  0
    6.6000    0.3572    0.0000 N   0  0  0  0  0  0  0  0  0  0  0  0
    3.7125   -7.5019    0.0000 N   0  0  0  0  0  0  0  0  0  0  0  0
   -3.3000   -8.2164    0.0000 N   0  0  0  0  0  0  0  0  0  0  0  0
   -7.4250    7.5019    0.0000 N   0  0  0  0  0  0  0  0  0  0  0  0
    1.6500    6.0730    0.0000 N   0  0  0  0  0  0  0  0  0  0  0  0
    7.4250   -1.0717    0.0000 N   0  0  0  0  0  0  0  0  0  0  0  0
    2.8875   -8.9308    0.0000 N   0  0  0  0  0  0  0  0  0  0  0  0
   -2.0625    5.3585    0.0000 N   0  0  0  0  0  0  0  0  0  0  0  0
    4.9500    1.7861    0.0000 N   0  0  0  0  0  0  0  0  0  0  0  0
    4.1250   -5.3585    0.0000 N   0  0  0  0  0  0  0  0  0  0  0  0
   -2.4750   -9.6453    0.0000 N   0  0  0  0  0  0  0  0  0  0  0  0
   -5.7750    7.5019    0.0000 N   0  0  0  0  0  0  0  0  0  0  0  0
    2.4750    4.6440    0.0000 N   0  0  0  0  0  0  0  0  0  0  0  0
    6.6000   -2.5006    0.0000 N   0  0  0  0  0  0  0  0  0  0  0  0
    1.2375   -8.9308    0.0000 N   0  0  0  0  0  0  0  0  0  0  0  0
   -3.7125    6.7874    0.0000 N   0  0  0  0  0  0  0  0  0  0  0  0
    4.1250    3.2151    0.0000 N   0  0  0  0  0  0  0  0  0  0  0  0
    4.9500   -3.9295    0.0000 N   0  0  0  0  0  0  0  0  0  0  0  0
   -0.8250   -9.6453    0.0000 N   0  0  0  0  0  0  0  0  0  0  0  0
   -6.1875    8.2164    0.0000 O   0  0  0  0  0  0  0  0  0  0  0  0
    1.6500    7.5019    0.0000 O   0  0  0  0  0  0  0  0  0  0  0  0
    8.6625   -0.3572    0.0000 O   0  0  0  0  0  0  0  0  0  0  0  0
    4.1250   -9.6453    0.0000 O   0  0  0  0  0  0  0  0  0  0  0  0
   -1.2375    6.7874    0.0000 O   0  0  0  0  0  0  0  0  0  0  0  0
    6.6000    1.7861    0.0000 O   0  0  0  0  0  0  0  0  0  0  0  0
    4.9500   -6.7874    0.0000 O   0  0  0  0  0  0  0  0  0  0  0  0
   -4.5375   -8.9308    0.0000 O   0  0  0  0  0  0  0  0  0  0  0  0
   -5.7750    6.0730    0.0000 O   0  0  0  0  0  0  0  0  0  0  0  0
    3.7125    5.3585    0.0000 O   0  0  0  0  0  0  0  0  0  0  0  0
    5.3625   -1.7861    0.0000 O   0  0  0  0  0  0  0  0  0  0  0  0
    1.2375  -10.3598    0.0000 O   0  0  0  0  0  0  0  0  0  0  0  0
   -2.0625    6.7874    0.0000 O   0  0  0  0  0  0  0  0  0  0  0  0
    6.1875    2.5006    0.0000 O   0  0  0  0  0  0  0  0  0  0  0  0
    2.8875   -4.6440    0.0000 O   0  0  0  0  0  0  0  0  0  0  0  0
   -2.4750  -11.0742    0.0000 O   0  0  0  0  0  0  0  0  0  0  0  0
   -4.9500    6.0730    0.0000 O   0  0  0  0  0  0  0  0  0  0  0  0
    4.1250    4.6440    0.0000 O   0  0  0  0  0  0  0  0  0  0  0  0
    4.9500   -2.5006    0.0000 O   0  0  0  0  0  0  0  0  0  0  0  0
    0.4125  -10.3598    0.0000 O   0  0  0  0  0  0  0  0  0  0  0  0
   -3.7125   -6.0730    0.0000 O   0  0  0  0  0  0  0  0  0  0  0  0
   -2.4750   -6.7874    0.0000 O   0  0  0  0  0  0  0  0  0  0  0  0
 38 33  1  0
 39 34  1  0
 40 35  1  0
 41 36  1  0
 42 37  1  0
 43 33  1  0
 44 34  1  0
 45 35  1  0
 46 36  1  0
 47 37  1  0
 48 38  1  0
 49 39  1  0
 50 40  1  0
 51 41  1  0
 52 42  1  0
 69  1  1  0
 69  2  1  0
 69 53  1  0
 70  3  1  0
 70  4  1  0
 70 54  1  0
 71  5  1  0
 71  6  1  0
 71 55  1  0
 72  7  1  0
 72  8  1  0
 72 56  1  0
 73  9  1  0
 73 10  1  0
 73 57  1  0
 74 11  1  0
 74 12  1  0
 74 58  1  0
 75 13  1  0
 75 14  1  0
 75 59  1  0
 76 15  1  0
 76 16  1  0
 76 60  1  0
 77 17  1  0
 77 18  1  0
 77 61  1  0
 78 19  1  0
 78 20  1  0
 78 62  1  0
 79 21  1  0
 79 22  1  0
 79 63  1  0
 80 23  1  0
 80 24  1  0
 80 64  1  0
 81 25  1  0
 81 26  1  0
 81 65  1  0
 82 27  1  0
 82 28  1  0
 82 66  1  0
 83 29  1  0
 83 30  1  0
 83 67  1  0
 84 31  1  0
 84 32  1  0
 84 68  1  0
 85 43  1  0
 86 44  1  1
 87 45  1  1
 88 46  1  1
 89 47  1  1
 90 53  1  6
 91 54  1  6
 92 55  1  6
 93 56  1  6
 94 57  1  1
 95 58  1  1
 96 59  1  6
 97 60  1  1
 98 61  1  1
 99 62  1  6
100 63  1  1
101 64  1  6
102 65  1  1
103 66  1  6
104 67  1  1
105 68  1  6
 85106  1  0
 86107  1  0
 87108  1  0
 88109  1  0
 91110  1  0
 92111  1  0
 93112  1  0
 94113  1  0
 90114  1  0
 95115  1  0
 96116  1  0
 97117  1  0
 99118  1  0
100119  1  0
101120  1  0
102121  1  0
 98122  1  0
103123  1  0
104124  1  0
105125  1  0
 89126  1  0
127 48  1  0
128 49  1  0
129 50  1  0
130 51  1  0
131 52  1  0
 85132  1  1
 86133  1  0
133110  2  3
 87134  1  0
134111  2  3
 88135  1  0
135112  2  3
 89136  1  0
136113  2  3
 90137  1  0
137106  2  3
 95138  1  0
138107  2  3
 96139  1  0
139108  2  3
 97140  1  0
140109  2  3
 91141  1  0
141118  2  3
 92142  1  0
142119  2  3
 93143  1  0
143120  2  3
 94144  1  0
144121  2  3
 98145  1  0
145114  2  3
103146  1  0
146115  2  3
104147  1  0
147116  2  3
105148  1  0
148117  2  3
 99149  1  0
149122  2  3
100150  1  0
150123  2  3
101151  1  0
151124  2  3
102152  1  0
152125  2  3
106153  1  0
107154  1  0
108155  1  0
109156  1  0
110157  1  0
111158  1  0
112159  1  0
113160  1  0
114161  1  0
115162  1  0
116163  1  0
117164  1  0
118165  1  0
119166  1  0
120167  1  0
121168  1  0
122169  1  0
123170  1  0
124171  1  0
125172  1  0
173126  2  0
174126  1  0
M  END
$$$$
