
     RDKit          2D

 46 49  0  0  0  0  0  0  0  0999 V2000
    0.3562   -0.2067    0.0000 O   0  0  0  0  0  0  0  0  0  0  0  0
    0.3562   -1.0316    0.0000 C   0  0  0  0  0  0  0  0  0  0  0  0
   -0.3562   -1.4432    0.0000 C   0  0  0  0  0  0  0  0  0  0  0  0
    1.0727   -1.4432    0.0000 C   0  0  0  0  0  0  0  0  0  0  0  0
   -1.0706   -1.0316    0.0000 C   0  0  0  0  0  0  0  0  0  0  0  0
   -0.3562   -2.2682    0.0000 C   0  0  0  0  0  0  0  0  0  0  0  0
    1.0727   -2.2682    0.0000 C   0  0  0  0  0  0  0  0  0  0  0  0
   -1.0706   -0.2067    0.0000 N   0  0  0  0  0  0  0  0  0  0  0  0
   -1.7851   -1.4432    0.0000 N   0  0  0  0  0  0  0  0  0  0  0  0
    0.3562   -2.6817    0.0000 C   0  0  0  0  0  0  0  0  0  0  0  0
    1.7871   -2.6817    0.0000 O   0  0  0  0  0  0  0  0  0  0  0  0
   -1.7851    0.2067    0.0000 C   0  0  0  0  0  0  0  0  0  0  0  0
   -2.5016   -1.0316    0.0000 C   0  0  0  0  0  0  0  0  0  0  0  0
    2.5016   -2.2682    0.0000 C   0  0  0  0  0  0  0  0  0  0  0  0
   -2.5016   -0.2067    0.0000 N   0  0  0  0  0  0  0  0  0  0  0  0
   -1.7851    1.0317    0.0000 C   0  0  0  0  0  0  0  0  0  0  0  0
   -3.2160   -1.4432    0.0000 C   0  0  0  0  0  0  0  0  0  0  0  0
    3.2160   -2.6817    0.0000 C   0  0  0  0  0  0  0  0  0  0  0  0
   -2.4975    1.4432    0.0000 C   0  0  0  0  0  0  0  0  0  0  0  0
   -1.0686    1.4432    0.0000 C   0  0  0  0  0  0  0  0  0  0  0  0
   -3.2160   -2.2682    0.0000 C   0  0  0  0  0  0  0  0  0  0  0  0
   -3.9284   -1.0316    0.0000 C   0  0  0  0  0  0  0  0  0  0  0  0
    3.9305   -2.2682    0.0000 C   0  0  0  0  0  0  0  0  0  0  0  0
    3.2160   -3.5066    0.0000 C   0  0  0  0  0  0  0  0  0  0  0  0
   -3.2119    1.0317    0.0000 O   0  0  0  0  0  0  0  0  0  0  0  0
   -2.4975    2.2682    0.0000 C   0  0  0  0  0  0  0  0  0  0  0  0
   -1.0686    2.2682    0.0000 C   0  0  0  0  0  0  0  0  0  0  0  0
   -3.9284   -2.6817    0.0000 C   0  0  0  0  0  0  0  0  0  0  0  0
   -4.6449   -1.4432    0.0000 C   0  0  0  0  0  0  0  0  0  0  0  0
    4.6449   -2.6817    0.0000 C   0  0  0  0  0  0  0  0  0  0  0  0
    3.9305   -3.9182    0.0000 C   0  0  0  0  0  0  0  0  0  0  0  0
   -1.7851    2.6817    0.0000 C   0  0  0  0  0  0  0  0  0  0  0  0
   -4.6449   -2.2682    0.0000 C   0  0  0  0  0  0  0  0  0  0  0  0
    5.3594   -2.2682    0.0000 C   0  0  0  0  0  0  0  0  0  0  0  0
   -1.7851    3.5067    0.0000 O   0  0  0  0  0  0  0  0  0  0  0  0
   -5.3594   -2.6817    0.0000 O   0  0  0  0  0  0  0  0  0  0  0  0
    6.0738   -2.6817    0.0000 C   0  0  0  0  0  0  0  0  0  0  0  0
   -1.0706    3.9182    0.0000 C   0  0  0  0  0  0  0  0  0  0  0  0
   -6.0738   -2.2682    0.0000 C   0  0  0  0  0  0  0  0  0  0  0  0
   -0.3562    3.5067    0.0000 C   0  0  0  0  0  0  0  0  0  0  0  0
    0.3581    3.9182    0.0000 C   0  0  0  0  0  0  0  0  0  0  0  0
   -0.3562    2.6817    0.0000 C   0  0  0  0  0  0  0  0  0  0  0  0
    1.0727    3.5067    0.0000 C   0  0  0  0  0  0  0  0  0  0  0  0
    0.3581    2.2682    0.0000 C   0  0  0  0  0  0  0  0  0  0  0  0
    1.7871    3.9182    0.0000 C   0  0  0  0  0  0  0  0  0  0  0  0
    2.5016    3.5067    0.0000 C   0  0  0  0  0  0  0  0  0  0  0  0
  1  2  1  0
  2  3  2  0
  2  4  1  0
  3  5  1  0
  3  6  1  0
  4  7  2  0
  5  8  2  0
  5  9  1  0
  6 10  2  0
  7 10  1  0
  7 11  1  0
  8 12  1  0
  9 13  2  0
 11 14  1  0
 12 15  2  0
 12 16  1  0
 13 15  1  0
 13 17  1  0
 14 18  1  0
 16 19  2  0
 16 20  1  0
 17 21  2  0
 17 22  1  0
 18 23  1  0
 18 24  1  0
 19 25  1  0
 19 26  1  0
 20 27  2  0
 21 28  1  0
 22 29  2  0
 23 30  1  0
 24 31  1  0
 26 32  2  0
 27 32  1  0
 28 33  2  0
 29 33  1  0
 30 34  1  0
 32 35  1  0
 33 36  1  0
 34 37  1  0
 35 38  1  0
 36 39  1  0
 38 40  1  0
 40 41  1  0
 40 42  1  0
 41 43  1  0
 42 44  1  0
 43 45  1  0
 45 46  1  0
M  END
$$$$
