
     RDKit          2D

 13 12  0  0  0  0  0  0  0  0999 V2000
    5.5375    0.2669    0.0000 C   0  0  0  0  0  0  0  0  0  0  0  0
    6.2519   -0.1456    0.0000 C   0  0  0  0  0  0  0  0  0  0  0  0
    6.9664    0.2669    0.0000 C   0  0  0  0  0  0  0  0  0  0  0  0
    7.6809   -0.1456    0.0000 C   0  0  0  0  0  0  0  0  0  0  0  0
    8.3953    0.2669    0.0000 C   0  0  0  0  0  0  0  0  0  0  0  0
    9.1098   -0.1456    0.0000 C   0  0  0  0  0  0  0  0  0  0  0  0
    4.8230   -0.1456    0.0000 O   0  0  0  0  0  0  0  0  0  0  0  0
    6.2519   -0.9706    0.0000 O   0  0  0  0  0  0  0  0  0  0  0  0
    6.9664    1.0919    0.0000 O   0  0  0  0  0  0  0  0  0  0  0  0
    7.6809   -0.9706    0.0000 O   0  0  0  0  0  0  0  0  0  0  0  0
    8.3953    1.0919    0.0000 O   0  0  0  0  0  0  0  0  0  0  0  0
    9.8243    0.2669    0.0000 O   0  0  0  0  0  0  0  0  0  0  0  0
    9.1098   -0.9706    0.0000 O   0  0  0  0  0  0  0  0  0  0  0  0
  2  1  1  0
  3  2  1  0
  4  3  1  0
  5  4  1  0
  6  5  1  0
  7  1  1  0
  2  8  1  6
  3  9  1  1
  4 10  1  1
  5 11  1  1
 12  6  2  0
 13  6  1  0
M  CHG  1  13  -1
M  END
$$$$
