
     RDKit          2D

 42 48  0  0  0  0  0  0  0  0999 V2000
    1.2657   -2.9174    0.0000 C   0  0  0  0  0  0  0  0  0  0  0  0
    0.5512   -3.3299    0.0000 C   0  0  0  0  0  0  0  0  0  0  0  0
    0.5512   -4.1549    0.0000 C   0  0  0  0  0  0  0  0  0  0  0  0
    1.2657   -4.5674    0.0000 C   0  0  0  0  0  0  0  0  0  0  0  0
    1.9802   -4.1549    0.0000 C   0  0  0  0  0  0  0  0  0  0  0  0
    1.9802   -3.3299    0.0000 C   0  0  0  0  0  0  0  0  0  0  0  0
    1.2657   -2.0924    0.0000 C   0  0  0  0  0  0  0  0  0  0  0  0
    1.9801   -1.6799    0.0000 C   0  0  0  0  0  0  0  0  0  0  0  0
    2.6946   -2.0924    0.0000 C   0  0  0  0  0  0  0  0  0  0  0  0
    2.6946   -2.9174    0.0000 C   0  0  0  0  0  0  0  0  0  0  0  0
    1.9801   -0.8549    0.0000 N   0  0  0  0  0  0  0  0  0  0  0  0
    1.2656   -0.4424    0.0000 C   0  0  0  0  0  0  0  0  0  0  0  0
    0.5512   -0.8549    0.0000 C   0  0  0  0  0  0  0  0  0  0  0  0
    0.5512   -1.6799    0.0000 C   0  0  0  0  0  0  0  0  0  0  0  0
    2.9133   -4.3114    0.0000 N   0  0  0  0  0  0  0  0  0  0  0  0
    3.3077   -3.4694    0.0000 C   0  0  0  0  0  0  0  0  0  0  0  0
    2.6946   -0.4423    0.0000 C   0  0  0  0  0  0  0  0  0  0  0  0
   -0.1632   -0.4424    0.0000 C   0  0  0  0  0  0  0  0  0  0  0  0
   -0.8777   -0.8550    0.0000 O   0  0  0  0  0  0  0  0  0  0  0  0
   -0.1633    0.3825    0.0000 N   0  0  0  0  0  0  0  0  0  0  0  0
   -0.8777    0.7950    0.0000 C   0  0  0  0  0  0  0  0  0  0  0  0
   -0.3585    1.4361    0.0000 C   0  0  0  0  0  0  0  0  0  0  0  0
   -0.8079    2.1280    0.0000 N   0  0  0  0  0  0  0  0  0  0  0  0
   -1.6047    1.9145    0.0000 C   0  0  0  0  0  0  0  0  0  0  0  0
   -1.6479    1.0906    0.0000 O   0  0  0  0  0  0  0  0  0  0  0  0
   -2.1881    2.4978    0.0000 C   0  0  0  0  0  0  0  0  0  0  0  0
   -1.9746    3.2947    0.0000 N   0  0  0  0  0  0  0  0  0  0  0  0
   -1.1777    3.5083    0.0000 C   0  0  0  0  0  0  0  0  0  0  0  0
   -0.5943    2.9249    0.0000 C   0  0  0  0  0  0  0  0  0  0  0  0
   -3.0119    2.4546    0.0000 C   0  0  0  0  0  0  0  0  0  0  0  0
   -3.3076    3.2248    0.0000 C   0  0  0  0  0  0  0  0  0  0  0  0
   -2.6666    3.7440    0.0000 C   0  0  0  0  0  0  0  0  0  0  0  0
   -2.3192    1.5020    0.0000 O   0  0  0  0  0  0  0  0  0  0  0  0
   -1.4611    0.2116    0.0000 C   0  0  0  0  0  0  0  0  0  0  0  0
   -2.2580    0.4251    0.0000 C   0  0  0  0  0  0  0  0  0  0  0  0
   -2.0444   -0.3717    0.0000 C   0  0  0  0  0  0  0  0  0  0  0  0
    0.4652    1.3930    0.0000 O   0  0  0  0  0  0  0  0  0  0  0  0
    0.2024    3.1384    0.0000 C   0  0  0  0  0  0  0  0  0  0  0  0
    0.6149    3.8529    0.0000 C   0  0  0  0  0  0  0  0  0  0  0  0
    1.4399    3.8529    0.0000 C   0  0  0  0  0  0  0  0  0  0  0  0
    0.2024    4.5674    0.0000 C   0  0  0  0  0  0  0  0  0  0  0  0
   -0.9642    4.3052    0.0000 O   0  0  0  0  0  0  0  0  0  0  0  0
  1  2  2  0
  2  3  1  0
  3  4  2  0
  4  5  1  0
  5  6  2  0
  1  7  1  0
  1  6  1  0
  8  9  1  6
  9 10  1  0
  8 11  1  0
  7  8  1  0
  7 14  1  1
 11 12  1  0
 12 13  1  0
 13 14  1  0
 10 16  2  0
 10  6  1  0
 15 16  1  0
  5 15  1  0
 11 17  1  0
 13 18  1  1
 18 19  2  0
 18 20  1  0
 21 20  1  6
 21 22  1  0
 21 25  1  0
 22 23  1  0
 24 25  1  0
 29 23  1  0
 23 24  1  0
 24 26  1  0
 27 28  1  0
 28 29  1  0
 26 30  1  6
 27 26  1  0
 27 32  1  0
 30 31  1  0
 31 32  1  0
 24 33  1  6
 21 34  1  0
 34 35  1  0
 34 36  1  0
 22 37  2  0
 29 38  1  6
 38 39  1  0
 39 40  1  0
 39 41  1  0
 28 42  2  0
M  END
$$$$
