
     RDKit          2D

 65 73  0  0  0  0  0  0  0  0999 V2000
    0.1103    2.3335    0.0000 C   0  0  0  0  0  0  0  0  0  0  0  0
   -0.2522    1.5924    0.0000 N   0  0  0  0  0  0  0  0  0  0  0  0
    0.9460    2.3808    0.0000 O   0  0  0  0  0  0  0  0  0  0  0  0
   -0.3311    3.0272    0.0000 C   0  0  0  0  0  0  0  0  0  0  0  0
   -1.1668    2.9799    0.0000 C   0  0  0  0  0  0  0  0  0  0  0  0
   -1.6082    3.6578    0.0000 C   0  0  0  0  0  0  0  0  0  0  0  0
   -1.2455    4.3990    0.0000 C   0  0  0  0  0  0  0  0  0  0  0  0
   -0.4257    4.4461    0.0000 C   0  0  0  0  0  0  0  0  0  0  0  0
    0.0315    3.7525    0.0000 C   0  0  0  0  0  0  0  0  0  0  0  0
   -3.9890    0.6149    0.0000 N   0  0  0  0  0  0  0  0  0  0  0  0
   -3.2479    0.2365    0.0000 C   0  0  0  0  0  0  0  0  0  0  0  0
   -2.5226    0.6149    0.0000 C   0  0  0  0  0  0  0  0  0  0  0  0
   -1.8290    0.1734    0.0000 C   0  0  0  0  0  0  0  0  0  0  0  0
   -0.3153    0.2522    0.0000 C   0  0  0  0  0  0  0  0  0  0  0  0
   -1.0878    0.5518    0.0000 C   0  0  0  0  0  0  0  0  0  0  0  0
    0.2048    0.8986    0.0000 C   0  0  0  0  0  0  0  0  0  0  0  0
    1.0248    0.9460    0.0000 C   0  0  0  0  0  0  0  0  0  0  0  0
    1.4663    0.2680    0.0000 C   0  0  0  0  0  0  0  0  0  0  0  0
    2.3019    0.3153    0.0000 C   0  0  0  0  0  0  0  0  0  0  0  0
    3.5002    1.0878    0.0000 C   0  0  0  0  0  0  0  0  0  0  0  0
    3.9416    1.7816    0.0000 C   0  0  0  0  0  0  0  0  0  0  0  0
    4.7299    1.5766    0.0000 N   0  0  0  0  0  0  0  0  0  0  0  0
    4.0204    0.4573    0.0000 N   0  0  0  0  0  0  0  0  0  0  0  0
    2.6646    1.0405    0.0000 C   0  0  0  0  0  0  0  0  0  0  0  0
    2.2230    1.7343    0.0000 C   0  0  0  0  0  0  0  0  0  0  0  0
    1.3874    1.6870    0.0000 C   0  0  0  0  0  0  0  0  0  0  0  0
   -1.0563    1.3717    0.0000 C   0  0  0  0  0  0  0  0  0  0  0  0
   -1.7500    1.8290    0.0000 C   0  0  0  0  0  0  0  0  0  0  0  0
   -2.4753    1.4505    0.0000 C   0  0  0  0  0  0  0  0  0  0  0  0
   -3.3740   -0.5675    0.0000 C   0  0  0  0  0  0  0  0  0  0  0  0
   -4.1939   -0.7094    0.0000 N   0  0  0  0  0  0  0  0  0  0  0  0
   -4.5724    0.0315    0.0000 C   0  0  0  0  0  0  0  0  0  0  0  0
    7.4576    2.4122    0.0000 O   0  0  0  0  0  0  0  0  0  0  0  0
    6.8742    2.9956    0.0000 C   0  0  0  0  0  0  0  0  0  0  0  0
    6.0859    2.7907    0.0000 N   0  0  0  0  0  0  0  0  0  0  0  0
    7.0950    3.7998    0.0000 O   0  0  0  0  0  0  0  0  0  0  0  0
   -5.7707    0.8829    0.0000 C   0  0  0  0  0  0  0  0  0  0  0  0
   -6.5747    0.7568    0.0000 C   0  0  0  0  0  0  0  0  0  0  0  0
   -6.7008   -0.0630    0.0000 C   0  0  0  0  0  0  0  0  0  0  0  0
   -5.9598   -0.4414    0.0000 N   0  0  0  0  0  0  0  0  0  0  0  0
   -5.3922    0.1577    0.0000 C   0  0  0  0  0  0  0  0  0  0  0  0
    4.9350    2.3020    0.0000 C   0  0  0  0  0  0  0  0  0  0  0  0
    6.4643    1.4031    0.0000 C   0  0  0  0  0  0  0  0  0  0  0  0
    5.8651    1.9866    0.0000 C   0  0  0  0  0  0  0  0  0  0  0  0
    7.2526    1.6239    0.0000 O   0  0  0  0  0  0  0  0  0  0  0  0
    6.2436    0.5991    0.0000 N   0  0  0  0  0  0  0  0  0  0  0  0
   -5.8337   -1.2455    0.0000 C   0  0  0  0  0  0  0  0  0  0  0  0
   -6.4801   -1.7658    0.0000 C   0  0  0  0  0  0  0  0  0  0  0  0
   -6.3382   -2.5856    0.0000 N   0  0  0  0  0  0  0  0  0  0  0  0
   -5.0611   -1.5451    0.0000 O   0  0  0  0  0  0  0  0  0  0  0  0
   -6.9847   -3.1060    0.0000 C   0  0  0  0  0  0  0  0  0  0  0  0
   -6.8428   -3.9259    0.0000 O   0  0  0  0  0  0  0  0  0  0  0  0
   -7.7572   -2.8221    0.0000 O   0  0  0  0  0  0  0  0  0  0  0  0
    6.7638   -0.0315    0.0000 C   0  0  0  0  0  0  0  0  0  0  0  0
    5.4868    0.2996    0.0000 C   0  0  0  0  0  0  0  0  0  0  0  0
    5.5341   -0.5203    0.0000 C   0  0  0  0  0  0  0  0  0  0  0  0
    6.3224   -0.7252    0.0000 C   0  0  0  0  0  0  0  0  0  0  0  0
    4.7773    0.7568    0.0000 C   0  0  0  0  0  0  0  0  0  0  0  0
    7.8833    4.0205    0.0000 C   0  0  0  0  0  0  0  0  0  0  0  0
   -7.4892   -4.4461    0.0000 C   0  0  0  0  0  0  0  0  0  0  0  0
   -7.2369   -1.4820    0.0000 C   0  0  0  0  0  0  0  0  0  0  0  0
   -7.3788   -0.6622    0.0000 C   0  0  0  0  0  0  0  0  0  0  0  0
   -7.8833   -2.0024    0.0000 C   0  0  0  0  0  0  0  0  0  0  0  0
    4.1308    2.0812    0.0000 C   0  0  0  0  0  0  0  0  0  0  0  0
    4.7142    3.0902    0.0000 C   0  0  0  0  0  0  0  0  0  0  0  0
  1  3  1  0
  1  4  1  6
  1  2  1  0
  2 16  1  0
  2 27  1  0
  3 26  1  0
  4  5  2  0
  4  9  1  0
  5  6  1  0
  6  7  2  0
  7  8  1  0
  8  9  2  0
 10 11  1  0
 10 32  2  0
 11 12  1  0
 11 30  2  0
 12 13  2  0
 12 29  1  0
 13 15  1  0
 14 15  1  0
 14 16  2  0
 15 27  2  0
 16 17  1  0
 17 26  2  0
 17 18  1  0
 18 19  2  0
 19 24  1  0
 20 21  2  0
 20 23  1  0
 20 24  1  0
 21 22  1  0
 22 58  1  0
 23 58  2  0
 24 25  2  0
 25 26  1  0
 27 28  1  0
 28 29  2  0
 30 31  1  0
 31 32  1  0
 41 32  1  1
 33 34  2  0
 34 35  1  0
 34 36  1  0
 44 35  1  6
 36 59  1  0
 37 38  1  0
 37 41  1  0
 38 39  1  0
 39 40  1  0
 40 41  1  0
 40 47  1  0
 44 42  1  0
 42 64  1  0
 42 65  1  0
 43 44  1  0
 43 46  1  0
 43 45  2  0
 46 54  1  0
 46 55  1  0
 47 50  2  0
 47 48  1  0
 48 49  1  1
 48 61  1  0
 49 51  1  0
 51 53  2  0
 51 52  1  0
 52 60  1  0
 54 57  1  0
 55 56  1  0
 55 58  1  1
 56 57  1  0
 61 62  1  0
 61 63  1  0
M  END
$$$$
