
     RDKit          2D

 36 35  0  0  0  0  0  0  0  0999 V2000
    6.2606    0.0952    0.0000 C   0  0  0  0  0  0  0  0  0  0  0  0
    6.9787   -0.3210    0.0000 C   0  0  0  0  0  0  0  0  0  0  0  0
    5.5458   -0.3167    0.0000 N   0  0  0  0  0  0  0  0  0  0  0  0
    6.2606    0.9164    0.0000 O   0  0  0  0  0  0  0  0  0  0  0  0
    7.6932    0.0952    0.0000 C   0  0  0  0  0  0  0  0  0  0  0  0
    6.9787   -1.1460    0.0000 O   0  0  0  0  0  0  0  0  0  0  0  0
    4.6500    0.1746    0.0000 C   0  0  0  0  0  0  0  0  0  0  0  0
    8.1794    0.7469    0.0000 C   0  0  0  0  0  0  0  0  0  0  0  0
    7.2807    0.6881    0.0000 C   0  0  0  0  0  0  0  0  0  0  0  0
    3.9294   -0.2335    0.0000 C   0  0  0  0  0  0  0  0  0  0  0  0
    3.2173    0.1831    0.0000 C   0  0  0  0  0  0  0  0  0  0  0  0
    2.5005   -0.2251    0.0000 N   0  0  0  0  0  0  0  0  0  0  0  0
    3.2223    1.0081    0.0000 O   0  0  0  0  0  0  0  0  0  0  0  0
    1.7884    0.1915    0.0000 C   0  0  0  0  0  0  0  0  0  0  0  0
    1.0715   -0.2168    0.0000 C   0  0  0  0  0  0  0  0  0  0  0  0
    0.3595    0.1999    0.0000 S   0  0  0  0  0  0  0  0  0  0  0  0
   -0.3572   -0.2083    0.0000 S   0  0  0  0  0  0  0  0  0  0  0  0
   -6.2607   -0.0993    0.0000 C   0  0  0  0  0  0  0  0  0  0  0  0
   -6.9764    0.3210    0.0000 C   0  0  0  0  0  0  0  0  0  0  0  0
   -5.5434    0.3084    0.0000 N   0  0  0  0  0  0  0  0  0  0  0  0
   -6.2655   -0.9206    0.0000 O   0  0  0  0  0  0  0  0  0  0  0  0
   -7.6933   -0.0908    0.0000 C   0  0  0  0  0  0  0  0  0  0  0  0
   -6.9715    1.1460    0.0000 O   0  0  0  0  0  0  0  0  0  0  0  0
   -4.6477   -0.1830    0.0000 C   0  0  0  0  0  0  0  0  0  0  0  0
   -8.1833   -0.7398    0.0000 C   0  0  0  0  0  0  0  0  0  0  0  0
   -7.2844   -0.6862    0.0000 C   0  0  0  0  0  0  0  0  0  0  0  0
   -3.9272    0.2252    0.0000 C   0  0  0  0  0  0  0  0  0  0  0  0
   -3.2150   -0.1913    0.0000 C   0  0  0  0  0  0  0  0  0  0  0  0
   -2.4982    0.2168    0.0000 N   0  0  0  0  0  0  0  0  0  0  0  0
   -3.2199   -1.0162    0.0000 O   0  0  0  0  0  0  0  0  0  0  0  0
   -1.7861   -0.1999    0.0000 C   0  0  0  0  0  0  0  0  0  0  0  0
   -1.0693    0.2085    0.0000 C   0  0  0  0  0  0  0  0  0  0  0  0
    8.4077   -0.3173    0.0000 C   0  0  0  0  0  0  0  0  0  0  0  0
    9.1223    0.0952    0.0000 O   0  0  0  0  0  0  0  0  0  0  0  0
   -8.4054    0.3258    0.0000 C   0  0  0  0  0  0  0  0  0  0  0  0
   -9.1223   -0.0825    0.0000 O   0  0  0  0  0  0  0  0  0  0  0  0
  1  2  1  0
  1  4  2  0
  2  5  1  0
  2  6  1  1
  3  7  1  0
  5  8  1  0
  5  9  1  0
  7 10  1  0
 10 11  1  0
 11 12  1  0
 11 13  2  0
 14 15  1  0
 15 16  1  0
 16 17  1  0
 18 19  1  0
 18 21  2  0
 19 22  1  0
 19 23  1  1
 20 24  1  0
 22 25  1  0
 22 26  1  0
 24 27  1  0
 27 28  1  0
 28 29  1  0
 28 30  2  0
 31 32  1  0
 32 17  1  0
  5 33  1  0
 33 34  1  0
 22 35  1  0
 35 36  1  0
 31 29  1  0
 14 12  1  0
 18 20  1  0
  1  3  1  0
M  END
$$$$
