
     RDKit          2D

 51 50  0  0  0  0  0  0  0  0999 V2000
    2.0442    3.4536    0.0000 C   0  0  0  0  0  0  0  0  0  0  0  0
    1.3337    3.0448    0.0000 C   0  0  0  0  0  0  0  0  0  0  0  0
    0.6237    3.4536    0.0000 C   0  0  0  0  0  0  0  0  0  0  0  0
    2.7542    3.0448    0.0000 O   0  0  0  0  0  0  0  0  0  0  0  0
    1.3334    2.2198    0.0000 O   0  0  0  0  0  0  0  0  0  0  0  0
   -0.7939    3.4693    0.0000 C   0  0  0  0  0  0  0  0  0  0  0  0
   -1.5014    3.0448    0.0000 C   0  0  0  0  0  0  0  0  0  0  0  0
   -2.2088    3.4693    0.0000 C   0  0  0  0  0  0  0  0  0  0  0  0
   -2.9163    3.0448    0.0000 C   0  0  0  0  0  0  0  0  0  0  0  0
   -3.6235    3.4693    0.0000 C   0  0  0  0  0  0  0  0  0  0  0  0
   -4.3309    3.0448    0.0000 C   0  0  0  0  0  0  0  0  0  0  0  0
   -5.0384    3.4693    0.0000 C   0  0  0  0  0  0  0  0  0  0  0  0
   -0.7939    4.2711    0.0000 O   0  0  0  0  0  0  0  0  0  0  0  0
   -0.0865    3.0448    0.0000 O   0  0  0  0  0  0  0  0  0  0  0  0
   -5.7598    3.0690    0.0000 C   0  0  0  0  0  0  0  0  0  0  0  0
   -5.7737    2.2439    0.0000 C   0  0  0  0  0  0  0  0  0  0  0  0
   -3.6374    1.7936    0.0000 C   0  0  0  0  0  0  0  0  0  0  0  0
   -4.3448    2.2181    0.0000 C   0  0  0  0  0  0  0  0  0  0  0  0
   -5.0740    1.8069    0.0000 C   0  0  0  0  0  0  0  0  0  0  0  0
   -7.1886    3.0690    0.0000 C   0  0  0  0  0  0  0  0  0  0  0  0
   -7.1886    2.2439    0.0000 C   0  0  0  0  0  0  0  0  0  0  0  0
   -6.4741    3.4814    0.0000 C   0  0  0  0  0  0  0  0  0  0  0  0
   -6.4741    1.8313    0.0000 C   0  0  0  0  0  0  0  0  0  0  0  0
    2.0615    1.8314    0.0000 C   0  0  0  0  0  0  0  0  0  0  0  0
    2.0615    1.0064    0.0000 C   0  0  0  0  0  0  0  0  0  0  0  0
    2.7893    0.6182    0.0000 C   0  0  0  0  0  0  0  0  0  0  0  0
    2.7893   -0.2068    0.0000 C   0  0  0  0  0  0  0  0  0  0  0  0
    3.5174   -0.5948    0.0000 C   0  0  0  0  0  0  0  0  0  0  0  0
    3.5172   -1.4198    0.0000 C   0  0  0  0  0  0  0  0  0  0  0  0
    4.2453   -1.8081    0.0000 C   0  0  0  0  0  0  0  0  0  0  0  0
    2.7490    2.2439    0.0000 O   0  0  0  0  0  0  0  0  0  0  0  0
    4.2732   -2.6327    0.0000 C   0  0  0  0  0  0  0  0  0  0  0  0
    3.5729   -3.0690    0.0000 C   0  0  0  0  0  0  0  0  0  0  0  0
    1.3594   -0.2555    0.0000 C   0  0  0  0  0  0  0  0  0  0  0  0
    2.0875   -0.6436    0.0000 C   0  0  0  0  0  0  0  0  0  0  0  0
    2.0875   -1.4688    0.0000 C   0  0  0  0  0  0  0  0  0  0  0  0
    2.8156   -1.8569    0.0000 C   0  0  0  0  0  0  0  0  0  0  0  0
    2.8380   -2.6939    0.0000 C   0  0  0  0  0  0  0  0  0  0  0  0
    5.0084   -3.8579    0.0000 C   0  0  0  0  0  0  0  0  0  0  0  0
    4.3008   -4.2823    0.0000 C   0  0  0  0  0  0  0  0  0  0  0  0
    4.9943   -3.0329    0.0000 C   0  0  0  0  0  0  0  0  0  0  0  0
    3.5794   -3.8819    0.0000 C   0  0  0  0  0  0  0  0  0  0  0  0
    3.4688    4.2823    0.0000 O   0  0  0  0  0  0  0  0  0  0  0  0
    6.3265    3.4574    0.0000 C   0  0  0  0  0  0  0  0  0  0  0  0
    4.8977    3.4574    0.0000 C   0  0  0  0  0  0  0  0  0  0  0  0
    5.6121    3.0449    0.0000 C   0  0  0  0  0  0  0  0  0  0  0  0
    4.1832    3.0449    0.0000 O   0  0  0  0  0  0  0  0  0  0  0  0
    3.4688    3.4573    0.0000 P   0  0  0  0  0  0  0  0  0  0  0  0
    3.4810    2.6323    0.0000 O   0  0  0  0  0  0  0  0  0  0  0  0
    7.1886    2.9446    0.0000 O   0  0  0  0  0  0  0  0  0  0  0  0
    5.6271    2.2079    0.0000 O   0  0  0  0  0  0  0  0  0  0  0  0
  4  1  1  0
  2  1  1  6
  2  3  1  0
  3 14  1  0
  2  5  1  0
  7  6  1  0
 14  6  1  0
 13  6  2  0
  8  7  1  0
  8  9  1  0
 10  9  1  0
 10 11  1  0
 12 11  1  0
 12 15  1  0
 17 18  1  0
 18 19  1  0
 19 16  1  0
 21 20  1  0
 22 20  1  0
 23 21  1  0
 15 22  1  0
 16 23  1  0
 25 24  1  0
  5 24  1  0
 31 24  2  0
 26 25  1  0
 26 27  1  0
 28 27  1  0
 28 29  1  0
 30 29  1  0
 30 32  1  0
 34 35  1  0
 35 36  1  0
 36 37  1  0
 37 38  1  0
 38 33  1  0
 40 39  1  0
 41 39  2  0
 42 40  1  0
 32 41  1  0
 33 42  1  0
  4 48  1  0
 43 48  2  0
 44 46  1  0
 45 46  1  0
 45 47  1  0
 47 48  1  0
 48 49  1  0
 50 44  1  0
 46 51  1  0
M  END
$$$$
