
     RDKit          2D

 11 11  0  0  0  0  0  0  0  0999 V2000
    2.8209    0.0931    0.0000 C   0  0  0  0  0  0  0  0  0  0  0  0
    3.3088    0.7584    0.0000 C   0  0  0  0  0  0  0  0  0  0  0  0
    4.1338    0.7584    0.0000 O   0  0  0  0  0  0  0  0  0  0  0  0
    2.8209    1.4237    0.0000 N   0  0  0  0  0  0  0  0  0  0  0  0
    2.0314    1.1665    0.0000 C   0  0  0  0  0  0  0  0  0  0  0  0
    1.3660    1.6543    0.0000 O   0  0  0  0  0  0  0  0  0  0  0  0
    2.0314    0.3415    0.0000 N   0  0  0  0  0  0  0  0  0  0  0  0
    3.0781   -0.6963    0.0000 N   0  0  0  0  0  0  0  0  0  0  0  0
    3.8854   -0.8648    0.0000 C   0  0  0  0  0  0  0  0  0  0  0  0
    4.1426   -1.6543    0.0000 O   0  0  0  0  0  0  0  0  0  0  0  0
    4.4353   -0.2528    0.0000 N   0  0  0  0  0  0  0  0  0  0  0  0
  1  2  1  0
  1  7  1  0
  1  8  1  0
  2  3  2  0
  2  4  1  0
  4  5  1  0
  5  6  2  0
  5  7  1  0
  8  9  1  0
  9 10  2  0
  9 11  1  0
M  CHG  1   4  -1
M  END
$$$$
