
     RDKit          2D

 20 22  0  0  0  0  0  0  0  0999 V2000
   -1.4837    0.0000    0.0000 O   0  0  0  0  0  0  0  0  0  0  0  0
   -1.3732   -1.2375    0.0000 N   0  0  0  0  0  0  0  0  0  0  0  0
   -0.6587   -0.8250    0.0000 C   0  0  0  0  0  0  0  0  0  0  0  0
   -0.6587    0.0000    0.0000 C   0  0  0  0  0  0  0  0  0  0  0  0
    0.0556   -1.2375    0.0000 C   0  0  0  0  0  0  0  0  0  0  0  0
    0.0556   -2.0625    0.0000 C   0  0  0  0  0  0  0  0  0  0  0  0
   -0.6587   -2.4750    0.0000 C   0  0  0  0  0  0  0  0  0  0  0  0
   -1.3732   -2.0625    0.0000 C   0  0  0  0  0  0  0  0  0  0  0  0
   -0.6587    0.8250    0.0000 C   0  0  0  0  0  0  0  0  0  0  0  0
    0.1662    0.0000    0.0000 C   0  0  0  0  0  0  0  0  0  0  0  0
   -1.3732    1.2375    0.0000 C   0  0  0  0  0  0  0  0  0  0  0  0
    0.5787   -0.7144    0.0000 C   0  0  0  0  0  0  0  0  0  0  0  0
    0.0556    1.2375    0.0000 C   0  0  0  0  0  0  0  0  0  0  0  0
    0.5787    0.7144    0.0000 C   0  0  0  0  0  0  0  0  0  0  0  0
   -1.3732    2.0625    0.0000 C   0  0  0  0  0  0  0  0  0  0  0  0
    1.4037   -0.7144    0.0000 C   0  0  0  0  0  0  0  0  0  0  0  0
    0.0556    2.0625    0.0000 C   0  0  0  0  0  0  0  0  0  0  0  0
    1.4037    0.7144    0.0000 C   0  0  0  0  0  0  0  0  0  0  0  0
   -0.6587    2.4750    0.0000 C   0  0  0  0  0  0  0  0  0  0  0  0
    1.8162    0.0000    0.0000 C   0  0  0  0  0  0  0  0  0  0  0  0
  1  4  1  0
  2  3  1  0
  2  8  1  0
  3  4  1  0
  3  5  1  0
  4  9  1  0
  4 10  1  0
  5  6  1  0
  6  7  1  0
  7  8  1  0
  9 11  2  0
  9 13  1  0
 10 12  2  0
 10 14  1  0
 11 15  1  0
 12 16  1  0
 13 17  2  0
 14 18  2  0
 15 19  2  0
 16 20  2  0
 17 19  1  0
 18 20  1  0
M  END
$$$$
