
     RDKit          2D

 59 67  0  0  1  0  0  0  0  0999 V2000
   -2.2352   -2.3214    0.0000 C   0  0  0  0  0  0  0  0  0  0  0  0
   -1.4646   -2.6162    0.0000 C   0  0  0  0  0  0  0  0  0  0  0  0
   -0.8240   -2.0963    0.0000 C   0  0  0  0  0  0  0  0  0  0  0  0
   -1.5946   -1.8015    0.0000 C   0  0  0  0  0  0  0  0  0  0  0  0
   -1.7245   -0.9868    0.0000 C   0  0  0  0  0  0  0  0  0  0  0  0
   -1.0839   -0.4669    0.0000 C   0  0  0  0  0  0  0  0  0  0  0  0
   -0.3134   -0.7618    0.0000 N   0  0  0  0  0  0  0  0  0  0  0  0
   -0.1834   -1.5765    0.0000 C   0  0  0  0  0  0  0  0  0  0  0  0
    0.5871   -1.8713    0.0000 C   0  0  0  0  0  0  0  0  0  0  0  0
    1.1056   -1.2296    0.0000 C   0  0  0  0  0  0  0  0  0  0  0  0
    0.6555   -0.5382    0.0000 C   0  0  0  0  0  0  0  0  0  0  0  0
    1.3218   -1.4960    0.0000 C   0  0  0  0  0  0  0  0  0  0  0  0
    1.5344   -0.6989    0.0000 C   0  0  0  0  0  0  0  0  0  0  0  0
    2.3311   -0.4845    0.0000 C   0  0  0  0  0  0  0  0  0  0  0  0
    2.9151   -1.0673    0.0000 C   0  0  0  0  0  0  0  0  0  0  0  0
    2.7024   -1.8644    0.0000 C   0  0  0  0  0  0  0  0  0  0  0  0
    1.9057   -2.0787    0.0000 C   0  0  0  0  0  0  0  0  0  0  0  0
    1.5320   -2.8142    0.0000 N   0  0  0  0  0  0  0  0  0  0  0  0
    0.7170   -2.6860    0.0000 C   0  0  0  0  0  0  0  0  0  0  0  0
    0.0764   -3.2059    0.0000 C   0  0  0  0  0  0  0  0  0  0  0  0
   -0.6941   -2.9110    0.0000 C   0  0  0  0  0  0  0  0  0  0  0  0
   -1.3347   -3.4309    0.0000 O   0  0  0  0  0  0  0  0  0  0  0  0
   -2.1052   -3.1361    0.0000 C   0  0  0  0  0  0  0  0  0  0  0  0
   -2.6892   -2.5533    0.0000 O   0  0  0  0  0  0  0  0  0  0  0  0
   -2.7458   -3.6559    0.0000 C   0  0  0  0  0  0  0  0  0  0  0  0
   -0.1914   -3.9862    0.0000 C   0  0  0  0  0  0  0  0  0  0  0  0
   -1.0011   -4.1445    0.0000 O   0  0  0  0  0  0  0  0  0  0  0  0
    0.3505   -4.6083    0.0000 O   0  0  0  0  0  0  0  0  0  0  0  0
    0.0827   -5.3886    0.0000 C   0  0  0  0  0  0  0  0  0  0  0  0
    0.5736   -3.8642    0.0000 O   0  0  0  0  0  0  0  0  0  0  0  0
    1.9073   -3.5489    0.0000 C   0  0  0  0  0  0  0  0  0  0  0  0
    3.7117   -0.8529    0.0000 O   0  0  0  0  0  0  0  0  0  0  0  0
    4.2957   -1.4356    0.0000 C   0  0  0  0  0  0  0  0  0  0  0  0
    2.2871    0.3393    0.0000 C   0  0  0  0  0  0  0  0  0  0  0  0
    1.8413    1.0698    0.0000 C   0  0  0  0  0  0  0  0  0  0  0  0
    1.9744    1.9327    0.0000 C   0  0  0  0  0  0  0  0  0  0  0  0
    1.8379    2.7882    0.0000 C   0  0  0  0  0  0  0  0  0  0  0  0
    2.4488    3.3726    0.0000 C   0  0  0  0  0  0  0  0  0  0  0  0
    3.2410    3.0777    0.0000 C   0  0  0  0  0  0  0  0  0  0  0  0
    3.4542    2.2380    0.0000 N   0  0  0  0  0  0  0  0  0  0  0  0
    2.7278    2.0200    0.0000 C   0  0  0  0  0  0  0  0  0  0  0  0
    3.9179    1.4982    0.0000 C   0  0  0  0  0  0  0  0  0  0  0  0
    3.7976    0.6509    0.0000 C   0  0  0  0  0  0  0  0  0  0  0  0
    3.1237    0.1751    0.0000 C   0  0  0  0  0  0  0  0  0  0  0  0
    3.3680   -0.6129    0.0000 N   0  0  0  0  0  0  0  0  0  0  0  0
    4.1929   -0.6241    0.0000 C   0  0  0  0  0  0  0  0  0  0  0  0
    4.4585    0.1570    0.0000 C   0  0  0  0  0  0  0  0  0  0  0  0
    5.2677    0.3176    0.0000 C   0  0  0  0  0  0  0  0  0  0  0  0
    5.8114   -0.3029    0.0000 C   0  0  0  0  0  0  0  0  0  0  0  0
    5.5458   -1.0840    0.0000 C   0  0  0  0  0  0  0  0  0  0  0  0
    4.7366   -1.2446    0.0000 C   0  0  0  0  0  0  0  0  0  0  0  0
    2.2821    4.1805    0.0000 C   0  0  0  0  0  0  0  0  0  0  0  0
    3.0901    4.3472    0.0000 C   0  0  0  0  0  0  0  0  0  0  0  0
    2.1154    4.9885    0.0000 F   0  0  0  0  0  0  0  0  0  0  0  0
    1.4741    4.0139    0.0000 F   0  0  0  0  0  0  0  0  0  0  0  0
    1.4991    0.0950    0.0000 C   0  0  0  0  0  0  0  0  0  0  0  0
    1.0770   -0.6139    0.0000 O   0  0  0  0  0  0  0  0  0  0  0  0
    0.8935    0.6552    0.0000 O   0  0  0  0  0  0  0  0  0  0  0  0
    0.1055    0.4109    0.0000 C   0  0  0  0  0  0  0  0  0  0  0  0
  1  2  1  0
  3  2  1  1
  3  4  1  0
  4  5  2  0
  5  6  1  0
  6  7  1  0
  8  7  1  6
  3  8  1  0
  8  9  1  0
  9 10  1  6
 10 11  1  0
  7 11  1  0
  9 12  1  0
 12 13  2  0
 13 14  1  0
 14 15  2  0
 15 16  1  0
 16 17  2  0
 12 17  1  0
 17 18  1  0
 19 18  1  1
  9 19  1  0
 19 20  1  0
 20 21  1  0
  3 21  1  0
 21 22  1  6
 22 23  1  0
 23 24  2  0
 23 25  1  0
 20 26  1  0
 26 27  2  0
 26 28  1  0
 28 29  1  0
 20 30  1  6
 18 31  1  0
 15 32  1  0
 32 33  1  0
 34 14  1  0
 34 35  1  0
 36 35  1  6
 36 37  1  0
 37 38  1  0
 38 39  1  0
 39 40  1  0
 40 41  1  0
 36 41  1  0
 40 42  1  0
 42 43  1  0
 43 44  2  0
 34 44  1  0
 44 45  1  0
 45 46  1  0
 46 47  2  0
 43 47  1  0
 47 48  1  0
 48 49  2  0
 49 50  1  0
 50 51  2  0
 46 51  1  0
 38 52  1  1
 52 53  1  0
 52 54  1  0
 52 55  1  0
 34 56  1  6
 56 57  2  0
 56 58  1  0
 58 59  1  0
M  END
$$$$
