
     RDKit          2D

 36 37  0  0  1  0  0  0  0  0999 V2000
   -5.7627   12.3818    0.0000 C   0  0  0  0  0  0  0  0  0  0  0  0
   -4.9780   12.6368    0.0000 C   0  0  0  0  0  0  0  0  0  0  0  0
   -4.3650   12.0848    0.0000 C   0  0  0  0  0  0  0  0  0  0  0  0
   -4.5365   11.2778    0.0000 C   0  0  0  0  0  0  0  0  0  0  0  0
   -5.3211   11.0228    0.0000 C   0  0  0  0  0  0  0  0  0  0  0  0
   -5.9342   11.5749    0.0000 C   0  0  0  0  0  0  0  0  0  0  0  0
   -3.9234   10.7258    0.0000 C   0  0  0  0  0  0  0  0  0  0  0  0
   -3.1388   10.9807    0.0000 C   0  0  0  0  0  0  0  0  0  0  0  0
   -2.5257   10.4287    0.0000 C   0  0  0  0  0  0  0  0  0  0  0  0
   -1.7410   10.6836    0.0000 C   0  0  0  0  0  0  0  0  0  0  0  0
   -1.1280   10.1316    0.0000 C   0  0  0  0  0  0  0  0  0  0  0  0
   -0.3433   10.3865    0.0000 C   0  0  0  0  0  0  0  0  0  0  0  0
   -0.0884   11.1711    0.0000 C   0  0  0  0  0  0  0  0  0  0  0  0
    0.7366   11.1711    0.0000 C   0  0  0  0  0  0  0  0  0  0  0  0
    0.9915   10.3865    0.0000 C   0  0  0  0  0  0  0  0  0  0  0  0
    0.3241    9.9016    0.0000 C   0  0  0  0  0  0  0  0  0  0  0  0
    0.3241    9.0766    0.0000 C   0  0  0  0  0  0  0  0  0  0  0  0
   -0.3904    8.6641    0.0000 C   0  0  0  0  0  0  0  0  0  0  0  0
   -0.3904    7.8391    0.0000 C   0  0  0  0  0  0  0  0  0  0  0  0
    0.3241    7.4266    0.0000 C   0  0  0  0  0  0  0  0  0  0  0  0
    1.0386    7.8391    0.0000 C   0  0  0  0  0  0  0  0  0  0  0  0
    1.7530    7.4266    0.0000 C   0  0  0  0  0  0  0  0  0  0  0  0
    2.4675    7.8391    0.0000 C   0  0  0  0  0  0  0  0  0  0  0  0
    2.4675    8.6641    0.0000 O   0  0  0  0  0  0  0  0  0  0  0  0
    3.1820    7.4266    0.0000 O   0  0  0  0  0  0  0  0  0  0  0  0
    3.8965    7.8391    0.0000 C   0  0  0  0  0  0  0  0  0  0  0  0
    4.6109    7.4266    0.0000 C   0  0  0  0  0  0  0  0  0  0  0  0
    5.3254    7.8391    0.0000 C   0  0  0  0  0  0  0  0  0  0  0  0
    6.0399    7.4266    0.0000 C   0  0  0  0  0  0  0  0  0  0  0  0
    6.7543    7.8391    0.0000 O   0  0  0  0  0  0  0  0  0  0  0  0
    7.4688    7.4266    0.0000 N   0  0  0  0  0  0  0  0  0  0  0  0
    8.1833    7.8391    0.0000 O   0  0  0  0  0  0  0  0  0  0  0  0
    7.4688    6.6016    0.0000 O   0  0  0  0  0  0  0  0  0  0  0  0
    1.7762   10.1316    0.0000 O   0  0  0  0  0  0  0  0  0  0  0  0
   -0.5733   11.8386    0.0000 O   0  0  0  0  0  0  0  0  0  0  0  0
   -2.6972    9.6217    0.0000 O   0  0  0  0  0  0  0  0  0  0  0  0
  1  2  2  0
  2  3  1  0
  3  4  2  0
  4  5  1  0
  5  6  2  0
  1  6  1  0
  4  7  1  0
  7  8  1  0
  8  9  1  0
  9 10  1  0
 10 11  1  0
 12 11  1  1
 12 13  1  0
 13 14  1  0
 14 15  1  0
 15 16  1  0
 12 16  1  0
 16 17  1  6
 17 18  1  0
 18 19  2  0
 19 20  1  0
 20 21  1  0
 21 22  1  0
 22 23  1  0
 23 24  2  0
 23 25  1  0
 25 26  1  0
 26 27  1  0
 27 28  1  0
 28 29  1  0
 29 30  1  0
 30 31  1  0
 31 32  2  0
 31 33  1  0
 15 34  1  6
 13 35  1  6
  9 36  1  1
M  CHG  2  31   1  33  -1
M  END
$$$$
