
     RDKit          2D

 31 34  0  0  1  0  0  0  0  0999 V2000
    3.0561    1.2853    0.0000 C   0  0  0  0  0  0  0  0  0  0  0  0
    1.7798    6.0384    0.0000 C   0  0  0  0  0  0  0  0  0  0  0  0
    3.2087    6.0384    0.0000 C   0  0  0  0  0  0  0  0  0  0  0  0
    1.7798    5.2134    0.0000 C   0  0  0  0  0  0  0  0  0  0  0  0
    3.2087    5.2134    0.0000 C   0  0  0  0  0  0  0  0  0  0  0  0
    4.4709   -0.3361    0.0000 C   0  0  0  0  0  0  0  0  0  0  0  0
    5.1383    0.1487    0.0000 C   0  0  0  0  0  0  0  0  0  0  0  0
    3.6310    0.8198    0.0000 C   0  0  0  0  0  0  0  0  0  0  0  0
    2.4943    7.2759    0.0000 C   0  0  0  0  0  0  0  0  0  0  0  0
    1.8268    3.4910    0.0000 C   0  0  0  0  0  0  0  0  0  0  0  0
    4.1259    2.9457    0.0000 C   0  0  0  0  0  0  0  0  0  0  0  0
    6.0629    3.8431    0.0000 C   0  0  0  0  0  0  0  0  0  0  0  0
    4.7934    4.2556    0.0000 C   0  0  0  0  0  0  0  0  0  0  0  0
    3.3917    2.0390    0.0000 C   0  0  0  0  0  0  0  0  0  0  0  0
    2.4943    6.4509    0.0000 C   0  0  0  0  0  0  0  0  0  0  0  0
    2.4943    4.8009    0.0000 C   0  0  0  0  0  0  0  0  0  0  0  0
    3.7172   -0.0006    0.0000 C   0  0  0  0  0  0  0  0  0  0  0  0
    4.2984    1.3047    0.0000 C   0  0  0  0  0  0  0  0  0  0  0  0
    5.0521    0.9692    0.0000 C   0  0  0  0  0  0  0  0  0  0  0  0
    2.4943    3.9759    0.0000 C   0  0  0  0  0  0  0  0  0  0  0  0
    2.9068    2.7064    0.0000 C   0  0  0  0  0  0  0  0  0  0  0  0
    4.2122    2.1252    0.0000 C   0  0  0  0  0  0  0  0  0  0  0  0
    3.0498   -0.4855    0.0000 F   0  0  0  0  0  0  0  0  0  0  0  0
    5.7195    1.4541    0.0000 F   0  0  0  0  0  0  0  0  0  0  0  0
    2.4943    8.1009    0.0000 N   0  0  0  0  0  0  0  0  0  0  0  0
    5.5780    4.5105    0.0000 N   0  0  0  0  0  0  0  0  0  0  0  0
    5.5780    3.1757    0.0000 N   0  0  0  0  0  0  0  0  0  0  0  0
    3.1617    3.4910    0.0000 N   0  0  0  0  0  0  0  0  0  0  0  0
    4.7934    3.4306    0.0000 N   0  0  0  0  0  0  0  0  0  0  0  0
    5.0326    2.2114    0.0000 O   0  0  0  0  0  0  0  0  0  0  0  0
    2.0818    2.7064    0.0000 S   0  0  0  0  0  0  0  0  0  0  0  0
  4  2  2  0
  5  3  1  0
  7  6  2  0
 14  1  1  1
 15  2  1  0
 15  3  2  0
 15  9  1  0
 16  4  1  0
 16  5  2  0
 17  6  1  0
 17  8  2  0
 18  8  1  0
 19  7  1  0
 19 18  2  0
 20 10  2  0
 20 16  1  0
 21 14  1  0
 22 11  1  0
 22 14  1  0
 22 18  1  0
 23 17  1  0
 24 19  1  0
 25  9  3  0
 26 12  1  0
 26 13  2  0
 27 12  2  0
 28 20  1  0
 28 21  2  0
 29 11  1  0
 29 13  1  0
 29 27  1  0
 22 30  1  1
 31 10  1  0
 31 21  1  0
M  END
$$$$
