
     RDKit          2D

 24 25  0  0  0  0  0  0  0  0999 V2000
    1.9282   -0.6235    0.0000 C   0  0  0  0  0  0  0  0  0  0  0  0
    1.3653   -1.2503    0.0000 C   0  0  0  0  0  0  0  0  0  0  0  0
    2.3695   -1.3526    0.0000 C   0  0  0  0  0  0  0  0  0  0  0  0
    1.6212   -2.0433    0.0000 O   0  0  0  0  0  0  0  0  0  0  0  0
    0.5660   -1.0583    0.0000 O   0  0  0  0  0  0  0  0  0  0  0  0
   -2.5678    1.8323    0.0000 N   0  0  0  0  0  0  0  0  0  0  0  0
    1.3269   -0.0798    0.0000 C   0  0  0  0  0  0  0  0  0  0  0  0
    2.6508   -0.2015    0.0000 C   0  0  0  0  0  0  0  0  0  0  0  0
   -0.7067    0.6684    0.0000 O   0  0  0  0  0  0  0  0  0  0  0  0
    3.1945   -1.3526    0.0000 C   0  0  0  0  0  0  0  0  0  0  0  0
    1.9473   -2.0817    0.0000 C   0  0  0  0  0  0  0  0  0  0  0  0
   -1.7555    1.6404    0.0000 C   0  0  0  0  0  0  0  0  0  0  0  0
   -3.1177    1.2183    0.0000 C   0  0  0  0  0  0  0  0  0  0  0  0
   -2.8299    2.6189    0.0000 C   0  0  0  0  0  0  0  0  0  0  0  0
    0.3165   -0.2909    0.0000 C   0  0  0  0  0  0  0  0  0  0  0  0
   -1.5252    0.8602    0.0000 C   0  0  0  0  0  0  0  0  0  0  0  0
   -0.4764   -0.0863    0.0000 C   0  0  0  0  0  0  0  0  0  0  0  0
    2.4654    0.5852    0.0000 C   0  0  0  0  0  0  0  0  0  0  0  0
    1.6724    0.6684    0.0000 C   0  0  0  0  0  0  0  0  0  0  0  0
   -2.8683    0.4317    0.0000 C   0  0  0  0  0  0  0  0  0  0  0  0
   -3.6166    2.7916    0.0000 C   0  0  0  0  0  0  0  0  0  0  0  0
    3.6166   -2.0817    0.0000 C   0  0  0  0  0  0  0  0  0  0  0  0
    2.3695   -2.7916    0.0000 C   0  0  0  0  0  0  0  0  0  0  0  0
    3.1945   -2.7916    0.0000 C   0  0  0  0  0  0  0  0  0  0  0  0
  2  1  1  0
  3  1  1  0
  4  2  2  0
  5  2  1  0
  6 12  1  0
  7  1  1  0
  8  1  1  0
  9 17  1  0
 10  3  2  0
 11  3  1  0
 12 16  1  0
 13  6  1  0
 14  6  1  0
 15  5  1  0
 16  9  1  0
 17 15  1  0
 18  8  1  0
 19  7  1  0
 20 13  1  0
 21 14  1  0
 22 10  1  0
 23 11  2  0
 24 23  1  0
 19 18  1  0
 22 24  2  0
M  END
$$$$
