
     RDKit          2D

 13 12  0  0  0  0  0  0  0  0999 V2000
    0.0598   -1.3451    0.0000 C   0  0  0  0  0  0  0  0  0  0  0  0
   -0.6546   -0.9326    0.0000 O   0  0  0  0  0  0  0  0  0  0  0  0
    0.7743   -0.9326    0.0000 O   0  0  0  0  0  0  0  0  0  0  0  0
    1.4887   -2.1701    0.0000 C   0  0  0  0  0  0  0  0  0  0  0  0
    1.4887   -1.3451    0.0000 O   0  0  0  0  0  0  0  0  0  0  0  0
    2.2032   -2.5826    0.0000 O   0  0  0  0  0  0  0  0  0  0  0  0
   -1.3691   -1.3451    0.0000 O   0  0  0  0  0  0  0  0  0  0  0  0
   -1.3691   -2.1701    0.0000 C   0  0  0  0  0  0  0  0  0  0  0  0
   -2.0835   -2.5826    0.0000 O   0  0  0  0  0  0  0  0  0  0  0  0
   -0.6546   -2.5826    0.0000 C   0  0  0  0  0  0  0  0  0  0  0  0
    0.7743   -2.5826    0.0000 C   0  0  0  0  0  0  0  0  0  0  0  0
    0.0598   -2.1701    0.0000 C   0  0  0  0  0  0  0  0  0  0  0  0
    0.0598   -2.9951    0.0000 O   0  0  0  0  0  0  0  0  0  0  0  0
  4 11  1  0
  2  1  2  0
  3  1  1  0
  5  4  2  0
  6  4  1  0
  8  7  2  0
 10  8  1  0
  8  9  1  0
 12 10  1  0
 11 12  1  0
  1 12  1  0
 12 13  1  0
M  CHG  3   3  -1   6  -1   9  -1
M  END
$$$$
