
     RDKit          2D

 20 22  0  0  0  0  0  0  0  0999 V2000
    3.9934    0.8250    0.0000 C   0  0  0  0  0  0  0  0  0  0  0  0
    3.2789    1.2375    0.0000 C   0  0  0  0  0  0  0  0  0  0  0  0
    0.0574   -0.3020    0.0000 C   0  0  0  0  0  0  0  0  0  0  0  0
    0.0574    1.1270    0.0000 C   0  0  0  0  0  0  0  0  0  0  0  0
    3.2789   -0.4125    0.0000 C   0  0  0  0  0  0  0  0  0  0  0  0
   -1.1801    0.4125    0.0000 C   0  0  0  0  0  0  0  0  0  0  0  0
    3.9934    0.0000    0.0000 C   0  0  0  0  0  0  0  0  0  0  0  0
    0.4699    0.4125    0.0000 C   0  0  0  0  0  0  0  0  0  0  0  0
   -0.7676   -0.3020    0.0000 C   0  0  0  0  0  0  0  0  0  0  0  0
   -0.7676    1.1270    0.0000 C   0  0  0  0  0  0  0  0  0  0  0  0
    2.5645    0.8250    0.0000 C   0  0  0  0  0  0  0  0  0  0  0  0
    2.5645    0.0000    0.0000 C   0  0  0  0  0  0  0  0  0  0  0  0
    1.2949    0.4125    0.0000 C   0  0  0  0  0  0  0  0  0  0  0  0
    4.7079   -0.4125    0.0000 C   0  0  0  0  0  0  0  0  0  0  0  0
   -1.1801   -1.0164    0.0000 Cl  0  0  0  0  0  0  0  0  0  0  0  0
   -1.1801    1.8414    0.0000 Cl  0  0  0  0  0  0  0  0  0  0  0  0
    1.7798    1.0799    0.0000 N   0  0  0  0  0  0  0  0  0  0  0  0
    5.4223   -0.0000    0.0000 O   0  0  0  0  0  0  0  0  0  0  0  0
    4.7079   -1.2375    0.0000 O   0  0  0  0  0  0  0  0  0  0  0  0
    1.7798   -0.2549    0.0000 O   0  0  0  0  0  0  0  0  0  0  0  0
  2  1  2  0
  7  1  1  0
  7  5  2  0
  8  3  2  0
  8  4  1  0
  9  3  1  0
  9  6  2  0
 10  4  2  0
 10  6  1  0
 11  2  1  0
 12  5  1  0
 12 11  2  0
 13  8  1  0
 14  7  1  0
 15  9  1  0
 16 10  1  0
 17 11  1  0
 17 13  2  0
 18 14  2  0
 19 14  1  0
 20 12  1  0
 20 13  1  0
M  END
$$$$
