
     RDKit          2D

 12 11  0  0  0  0  0  0  0  0999 V2000
    1.7861    0.2062    0.0000 C   0  0  0  0  0  0  0  0  0  0  0  0
    1.0717   -0.2062    0.0000 C   0  0  0  0  0  0  0  0  0  0  0  0
    0.3572    0.2062    0.0000 C   0  0  0  0  0  0  0  0  0  0  0  0
   -0.3572   -0.2062    0.0000 C   0  0  0  0  0  0  0  0  0  0  0  0
   -1.0716    0.2062    0.0000 C   0  0  0  0  0  0  0  0  0  0  0  0
    1.7861    1.0312    0.0000 O   0  0  0  0  0  0  0  0  0  0  0  0
    1.0717   -1.0312    0.0000 O   0  0  0  0  0  0  0  0  0  0  0  0
    0.3572    1.0312    0.0000 O   0  0  0  0  0  0  0  0  0  0  0  0
   -0.3572   -1.0312    0.0000 O   0  0  0  0  0  0  0  0  0  0  0  0
   -1.0716    1.0312    0.0000 O   0  0  0  0  0  0  0  0  0  0  0  0
   -1.7861   -0.2062    0.0000 C   0  0  0  0  0  0  0  0  0  0  0  0
   -2.5006    0.2062    0.0000 O   0  0  0  0  0  0  0  0  0  0  0  0
  6  1  2  0
  2  1  1  0
  2  7  1  6
  3  2  1  0
  3  8  1  1
  4  3  1  0
  4  9  1  6
  5  4  1  0
  5 10  1  1
 11  5  1  0
 11 12  1  0
M  END
$$$$
