
     RDKit          2D

 24 24  0  0  0  0  0  0  0  0999 V2000
   -3.2152    0.7373    0.0000 N   0  0  0  0  0  0  0  0  0  0  0  0
   -1.7863    0.7373    0.0000 C   0  0  0  0  0  0  0  0  0  0  0  0
   -1.7863    1.5623    0.0000 O   0  0  0  0  0  0  0  0  0  0  0  0
   -2.5006    0.3249    0.0000 C   0  0  0  0  0  0  0  0  0  0  0  0
   -1.0719    0.3249    0.0000 N   0  0  0  0  0  0  0  0  0  0  0  0
    0.3573    0.3251    0.0000 C   0  0  0  0  0  0  0  0  0  0  0  0
   -0.3574    1.5628    0.0000 C   0  0  0  0  0  0  0  0  0  0  0  0
   -0.3572    0.7376    0.0000 C   0  0  0  0  0  0  0  0  0  0  0  0
    0.3574   -0.5000    0.0000 O   0  0  0  0  0  0  0  0  0  0  0  0
    1.0719    0.7378    0.0000 N   0  0  0  0  0  0  0  0  0  0  0  0
    1.1178    1.6403    0.0000 N   0  0  0  0  0  0  0  0  0  0  0  0
    0.3604    1.9774    0.0000 C   0  0  0  0  0  0  0  0  0  0  0  0
    1.2580    2.9745    0.0000 N   0  0  0  0  0  0  0  0  0  0  0  0
    1.6725    2.2565    0.0000 C   0  0  0  0  0  0  0  0  0  0  0  0
    0.4470    2.8019    0.0000 C   0  0  0  0  0  0  0  0  0  0  0  0
    2.5006    0.7378    0.0000 C   0  0  0  0  0  0  0  0  0  0  0  0
    2.5006    1.5628    0.0000 O   0  0  0  0  0  0  0  0  0  0  0  0
    1.7863    0.3254    0.0000 C   0  0  0  0  0  0  0  0  0  0  0  0
    1.7863   -0.4995    0.0000 C   0  0  0  0  0  0  0  0  0  0  0  0
    2.5008   -0.9120    0.0000 C   0  0  0  0  0  0  0  0  0  0  0  0
    2.5008   -1.7370    0.0000 C   0  0  0  0  0  0  0  0  0  0  0  0
    3.2152   -2.1495    0.0000 C   0  0  0  0  0  0  0  0  0  0  0  0
    3.2152   -2.9745    0.0000 N   0  0  0  0  0  0  0  0  0  0  0  0
    3.2151    0.3253    0.0000 O   0  0  0  0  0  0  0  0  0  0  0  0
  3  2  2  0
  4  2  1  0
  5  2  1  0
  4  1  1  0
  8  6  1  0
  9  6  2  0
 10  6  1  0
  8  7  1  1
  8  5  1  0
 12 11  1  0
 14 11  2  0
  7 12  1  0
 15 12  2  0
 14 13  1  0
 15 13  1  0
 17 16  2  0
 18 16  1  0
 18 10  1  0
 18 19  1  6
 19 20  1  0
 20 21  1  0
 21 22  1  0
 22 23  1  0
 16 24  1  0
M  END
$$$$
