
     RDKit          2D

 29 31  0  0  0  0  0  0  0  0999 V2000
   -0.3571    0.2062    0.0000 C   0  0  0  0  0  0  0  0  0  0  0  0
   -0.3571    1.0312    0.0000 C   0  0  0  0  0  0  0  0  0  0  0  0
   -1.0716    1.4437    0.0000 C   0  0  0  0  0  0  0  0  0  0  0  0
   -1.0716    2.2687    0.0000 C   0  0  0  0  0  0  0  0  0  0  0  0
   -0.3571    2.6812    0.0000 C   0  0  0  0  0  0  0  0  0  0  0  0
    0.3573    2.2687    0.0000 C   0  0  0  0  0  0  0  0  0  0  0  0
    0.3573    1.4437    0.0000 C   0  0  0  0  0  0  0  0  0  0  0  0
   -1.0716   -0.2060    0.0000 C   0  0  0  0  0  0  0  0  0  0  0  0
   -1.0716   -1.0310    0.0000 C   0  0  0  0  0  0  0  0  0  0  0  0
   -1.7861   -1.4437    0.0000 C   0  0  0  0  0  0  0  0  0  0  0  0
   -2.5005   -1.0310    0.0000 C   0  0  0  0  0  0  0  0  0  0  0  0
   -2.5005   -0.2060    0.0000 C   0  0  0  0  0  0  0  0  0  0  0  0
   -1.7861    0.2062    0.0000 C   0  0  0  0  0  0  0  0  0  0  0  0
    0.3573   -0.2060    0.0000 C   0  0  0  0  0  0  0  0  0  0  0  0
    1.0716    0.2062    0.0000 C   0  0  0  0  0  0  0  0  0  0  0  0
    1.7862   -0.2060    0.0000 C   0  0  0  0  0  0  0  0  0  0  0  0
    1.7862   -1.0310    0.0000 C   0  0  0  0  0  0  0  0  0  0  0  0
    1.0716   -1.4437    0.0000 C   0  0  0  0  0  0  0  0  0  0  0  0
    0.3573   -1.0310    0.0000 C   0  0  0  0  0  0  0  0  0  0  0  0
   -3.9295   -1.0310    0.0000 C   0  0  0  0  0  0  0  0  0  0  0  0
   -3.2151   -2.2687    0.0000 C   0  0  0  0  0  0  0  0  0  0  0  0
    3.2151   -1.0310    0.0000 C   0  0  0  0  0  0  0  0  0  0  0  0
    2.5006   -2.2687    0.0000 C   0  0  0  0  0  0  0  0  0  0  0  0
   -3.2151   -1.4437    0.0000 N   0  0  0  0  0  0  0  0  0  0  0  0
    2.5006   -1.4437    0.0000 N   0  0  0  0  0  0  0  0  0  0  0  0
   -3.9293   -0.2060    0.0000 C   0  0  0  0  0  0  0  0  0  0  0  0
   -3.9295   -2.6812    0.0000 C   0  0  0  0  0  0  0  0  0  0  0  0
    1.7861   -2.6812    0.0000 C   0  0  0  0  0  0  0  0  0  0  0  0
    3.9295   -1.4434    0.0000 C   0  0  0  0  0  0  0  0  0  0  0  0
  1  2  1  0
  1  8  1  0
  1 14  2  0
  2  3  2  0
  2  7  1  0
  3  4  1  0
  4  5  2  0
  5  6  1  0
  6  7  2  0
  8  9  2  0
  8 13  1  0
  9 10  1  0
 10 11  2  0
 11 12  1  0
 11 24  1  0
 12 13  2  0
 14 15  1  0
 14 19  1  0
 15 16  2  0
 16 17  1  0
 17 18  1  0
 17 25  2  0
 18 19  2  0
 20 24  1  0
 21 24  1  0
 22 25  1  0
 23 25  1  0
 20 26  1  0
 21 27  1  0
 23 28  1  0
 22 29  1  0
M  CHG  1  25   1
M  END
$$$$
