
     RDKit          2D

  5  4  0  0  0  0  0  0  0  0999 V2000
    5.0737   -0.8659    0.0000 O   0  0  0  0  0  0  0  0  0  0  0  0
    5.0737   -0.0408    0.0000 P   0  0  0  0  0  0  0  0  0  0  0  0
    5.8987   -0.0408    0.0000 O   0  0  0  0  0  0  0  0  0  0  0  0
    5.0737    0.7834    0.0000 O   0  0  0  0  0  0  0  0  0  0  0  0
    4.2486   -0.0408    0.0000 O   0  0  0  0  0  0  0  0  0  0  0  0
  1  2  2  0
  2  3  1  0
  2  4  1  0
  2  5  1  0
M  CHG  3   3  -1   4  -1   5  -1
M  END
$$$$
