
     RDKit          2D

 13 12  0  0  0  0  0  0  0  0999 V2000
   -2.6380   -3.8394    0.0000 O   0  0  0  0  0  0  0  0  0  0  0  0
   -1.9236   -3.4269    0.0000 C   0  0  0  0  0  0  0  0  0  0  0  0
   -1.2091   -3.8394    0.0000 C   0  0  0  0  0  0  0  0  0  0  0  0
   -1.2091   -4.6644    0.0000 O   0  0  0  0  0  0  0  0  0  0  0  0
   -0.4946   -3.4269    0.0000 C   0  0  0  0  0  0  0  0  0  0  0  0
   -0.4946   -2.6019    0.0000 O   0  0  0  0  0  0  0  0  0  0  0  0
    0.2198   -3.8394    0.0000 C   0  0  0  0  0  0  0  0  0  0  0  0
    0.2198   -4.6644    0.0000 O   0  0  0  0  0  0  0  0  0  0  0  0
    0.9343   -3.4269    0.0000 C   0  0  0  0  0  0  0  0  0  0  0  0
    0.9343   -2.6019    0.0000 O   0  0  0  0  0  0  0  0  0  0  0  0
    1.6488   -3.8394    0.0000 C   0  0  0  0  0  0  0  0  0  0  0  0
    2.3633   -3.4269    0.0000 O   0  0  0  0  0  0  0  0  0  0  0  0
    1.6488   -4.6644    0.0000 O   0  0  0  0  0  0  0  0  0  0  0  0
  1  2  1  0
  2  3  1  0
  3  4  1  6
  3  5  1  0
  5  6  1  1
  5  7  1  0
  7  8  1  1
  7  9  1  0
  9 10  1  1
  9 11  1  0
 11 12  1  0
 11 13  2  0
M  CHG  1  12  -1
M  END
$$$$
