
     RDKit          2D

 20 20  0  0  0  0  0  0  0  0999 V2000
   -2.8267    0.4126    0.0000 C   0  0  0  0  0  0  0  0  0  0  0  0
   -2.8267   -0.4124    0.0000 C   0  0  0  0  0  0  0  0  0  0  0  0
   -2.1121   -0.8251    0.0000 C   0  0  0  0  0  0  0  0  0  0  0  0
   -1.3975   -0.4124    0.0000 C   0  0  0  0  0  0  0  0  0  0  0  0
   -1.3975    0.4126    0.0000 C   0  0  0  0  0  0  0  0  0  0  0  0
   -2.1121    0.8251    0.0000 C   0  0  0  0  0  0  0  0  0  0  0  0
   -3.5412    0.8251    0.0000 N   0  0  0  0  0  0  0  0  0  0  0  0
   -0.6719   -0.8315    0.0000 C   0  0  0  0  0  0  0  0  0  0  0  0
    0.0383   -0.4215    0.0000 O   0  0  0  0  0  0  0  0  0  0  0  0
   -0.6721   -1.6501    0.0000 O   0  0  0  0  0  0  0  0  0  0  0  0
   -4.2458    0.4183    0.0000 C   0  0  0  0  0  0  0  0  0  0  0  0
   -3.5413    1.6501    0.0000 C   0  0  0  0  0  0  0  0  0  0  0  0
    0.7351   -0.8239    0.0000 C   0  0  0  0  0  0  0  0  0  0  0  0
    1.4389   -0.4177    0.0000 C   0  0  0  0  0  0  0  0  0  0  0  0
    2.1390   -0.8220    0.0000 C   0  0  0  0  0  0  0  0  0  0  0  0
    2.8409   -0.4167    0.0000 C   0  0  0  0  0  0  0  0  0  0  0  0
    3.5420   -0.8214    0.0000 C   0  0  0  0  0  0  0  0  0  0  0  0
    1.4390    0.3962    0.0000 C   0  0  0  0  0  0  0  0  0  0  0  0
    2.1573    0.8109    0.0000 C   0  0  0  0  0  0  0  0  0  0  0  0
    4.2458   -0.4153    0.0000 C   0  0  0  0  0  0  0  0  0  0  0  0
  1  2  2  0
  2  3  1  0
  3  4  2  0
  4  5  1  0
  5  6  2  0
  1  6  1  0
  1  7  1  0
  4  8  1  0
  8  9  1  0
  8 10  2  0
  7 11  1  0
  7 12  1  0
  9 13  1  0
 13 14  1  0
 14 15  1  0
 15 16  1  0
 16 17  1  0
 14 18  1  0
 18 19  1  0
 17 20  1  0
M  END
$$$$
