
     RDKit          2D

 42 47  0  0  0  0  0  0  0  0999 V2000
    2.1434   -1.2375    0.0000 C   0  0  0  0  0  0  0  0  0  0  0  0
    1.4289   -1.6500    0.0000 C   0  0  0  0  0  0  0  0  0  0  0  0
    0.7145   -1.2375    0.0000 C   0  0  0  0  0  0  0  0  0  0  0  0
    0.7145   -0.4125    0.0000 N   0  0  0  0  0  0  0  0  0  0  0  0
    1.4289   -0.0000    0.0000 C   0  0  0  0  0  0  0  0  0  0  0  0
    2.1434   -0.4125    0.0000 C   0  0  0  0  0  0  0  0  0  0  0  0
    2.8579   -0.0000    0.0000 Cl  0  0  0  0  0  0  0  0  0  0  0  0
    1.4289    0.8250    0.0000 N   0  0  0  0  0  0  0  0  0  0  0  0
    0.7145    1.2375    0.0000 C   0  0  0  0  0  0  0  0  0  0  0  0
    0.7145    2.0625    0.0000 C   0  0  0  0  0  0  0  0  0  0  0  0
    1.4289    2.4750    0.0000 C   0  0  0  0  0  0  0  0  0  0  0  0
    2.1434    2.0625    0.0000 C   0  0  0  0  0  0  0  0  0  0  0  0
    2.1434    1.2375    0.0000 C   0  0  0  0  0  0  0  0  0  0  0  0
    1.4289    3.3000    0.0000 C   0  0  0  0  0  0  0  0  0  0  0  0
    2.1434    3.7125    0.0000 O   0  0  0  0  0  0  0  0  0  0  0  0
    0.7145    3.7125    0.0000 O   0  0  0  0  0  0  0  0  0  0  0  0
    1.4289   -2.4750    0.0000 C   0  0  0  0  0  0  0  0  0  0  0  0
    2.1434   -2.8875    0.0000 O   0  0  0  0  0  0  0  0  0  0  0  0
    0.7145   -2.8875    0.0000 N   0  0  0  0  0  0  0  0  0  0  0  0
    0.7145   -3.7125    0.0000 C   0  0  0  0  0  0  0  0  0  0  0  0
    1.3819   -4.1974    0.0000 N   0  0  0  0  0  0  0  0  0  0  0  0
    1.1270   -4.9820    0.0000 C   0  0  0  0  0  0  0  0  0  0  0  0
    0.3020   -4.9820    0.0000 C   0  0  0  0  0  0  0  0  0  0  0  0
    0.0470   -4.1974    0.0000 S   0  0  0  0  0  0  0  0  0  0  0  0
   -0.1830   -5.6495    0.0000 N   0  0  0  0  0  0  0  0  0  0  0  0
    0.1526   -6.4032    0.0000 C   0  0  0  0  0  0  0  0  0  0  0  0
   -0.3323   -7.0706    0.0000 C   0  0  0  0  0  0  0  0  0  0  0  0
   -1.1528   -6.9844    0.0000 N   0  0  0  0  0  0  0  0  0  0  0  0
   -1.4884   -6.2307    0.0000 C   0  0  0  0  0  0  0  0  0  0  0  0
   -1.0034   -5.5632    0.0000 C   0  0  0  0  0  0  0  0  0  0  0  0
   -1.6377   -7.6518    0.0000 C   0  0  0  0  0  0  0  0  0  0  0  0
   -1.3022   -8.4055    0.0000 C   0  0  0  0  0  0  0  0  0  0  0  0
   -1.7871   -9.0729    0.0000 C   0  0  0  0  0  0  0  0  0  0  0  0
   -2.6076   -8.9867    0.0000 C   0  0  0  0  0  0  0  0  0  0  0  0
   -2.9431   -8.2330    0.0000 C   0  0  0  0  0  0  0  0  0  0  0  0
   -2.4582   -7.5656    0.0000 C   0  0  0  0  0  0  0  0  0  0  0  0
    1.6119   -5.6495    0.0000 C   0  0  0  0  0  0  0  0  0  0  0  0
    2.4369   -5.6495    0.0000 C   0  0  0  0  0  0  0  0  0  0  0  0
    2.6918   -6.4341    0.0000 C   0  0  0  0  0  0  0  0  0  0  0  0
    2.0244   -6.9190    0.0000 C   0  0  0  0  0  0  0  0  0  0  0  0
    1.3570   -6.4341    0.0000 S   0  0  0  0  0  0  0  0  0  0  0  0
    3.4765   -6.6890    0.0000 Cl  0  0  0  0  0  0  0  0  0  0  0  0
  1  2  2  0
  2  3  1  0
  3  4  2  0
  4  5  1  0
  5  6  2  0
  1  6  1  0
  6  7  1  0
  5  8  1  0
  8  9  1  0
  9 10  1  0
 10 11  1  0
 11 12  1  0
 12 13  1  0
  8 13  1  0
 11 14  1  0
 14 15  2  0
 14 16  1  0
  2 17  1  0
 17 18  2  0
 17 19  1  0
 19 20  1  0
 20 21  2  0
 21 22  1  0
 22 23  2  0
 23 24  1  0
 20 24  1  0
 23 25  1  0
 25 26  1  0
 26 27  1  0
 27 28  1  0
 28 29  1  0
 29 30  1  0
 25 30  1  0
 28 31  1  0
 31 32  1  0
 32 33  1  0
 33 34  1  0
 34 35  1  0
 35 36  1  0
 31 36  1  0
 22 37  1  0
 37 38  2  0
 38 39  1  0
 39 40  2  0
 40 41  1  0
 37 41  1  0
 39 42  1  0
M  END
$$$$
