
     RDKit          2D

 39 42  0  0  0  0  0  0  0  0999 V2000
    0.2455    0.3094    0.0000 C   0  0  0  0  0  0  0  0  0  0  0  0
    0.9055    0.8868    0.0000 C   0  0  0  0  0  0  0  0  0  0  0  0
    1.6892    0.6806    0.0000 C   0  0  0  0  0  0  0  0  0  0  0  0
    2.0605   -0.1031    0.0000 C   0  0  0  0  0  0  0  0  0  0  0  0
    0.2455   -0.5156    0.0000 C   0  0  0  0  0  0  0  0  0  0  0  0
    1.6892   -0.8456    0.0000 C   0  0  0  0  0  0  0  0  0  0  0  0
    0.9055   -1.0106    0.0000 C   0  0  0  0  0  0  0  0  0  0  0  0
    2.0193    1.4231    0.0000 C   0  0  0  0  0  0  0  0  0  0  0  0
    2.8443    1.6294    0.0000 C   0  0  0  0  0  0  0  0  0  0  0  0
    3.5044    1.1344    0.0000 C   0  0  0  0  0  0  0  0  0  0  0  0
    3.5044    0.2681    0.0000 C   0  0  0  0  0  0  0  0  0  0  0  0
    2.8855   -0.2681    0.0000 C   0  0  0  0  0  0  0  0  0  0  0  0
    0.6992    1.6706    0.0000 C   0  0  0  0  0  0  0  0  0  0  0  0
   -0.0844    1.8769    0.0000 C   0  0  0  0  0  0  0  0  0  0  0  0
   -0.7033    1.2993    0.0000 C   0  0  0  0  0  0  0  0  0  0  0  0
   -0.4557    0.5156    0.0000 C   0  0  0  0  0  0  0  0  0  0  0  0
   -1.4870    1.5469    0.0000 O   0  0  0  0  0  0  0  0  0  0  0  0
   -0.3320    2.6606    0.0000 O   0  0  0  0  0  0  0  0  0  0  0  0
   -1.1158    2.9082    0.0000 C   0  0  0  0  0  0  0  0  0  0  0  0
    1.2767    2.2481    0.0000 O   0  0  0  0  0  0  0  0  0  0  0  0
    2.0605    2.0419    0.0000 C   0  0  0  0  0  0  0  0  0  0  0  0
    4.2468    1.5057    0.0000 S   0  0  0  0  0  0  0  0  0  0  0  0
    4.9481    1.0931    0.0000 C   0  0  0  0  0  0  0  0  0  0  0  0
    4.2880   -0.0618    0.0000 O   0  0  0  0  0  0  0  0  0  0  0  0
    2.1842   -1.5057    0.0000 N   0  0  0  0  0  0  0  0  0  0  0  0
    1.7717   -2.2069    0.0000 C   0  0  0  0  0  0  0  0  0  0  0  0
    0.9467   -2.2069    0.0000 O   0  0  0  0  0  0  0  0  0  0  0  0
    2.1842   -2.9082    0.0000 C   0  0  0  0  0  0  0  0  0  0  0  0
   -2.0955    0.9897    0.0000 C   0  0  0  0  0  0  0  0  0  0  0  0
   -2.8029    1.4106    0.0000 O   0  0  0  0  0  0  0  0  0  0  0  0
   -3.5229    1.0078    0.0000 C   0  0  0  0  0  0  0  0  0  0  0  0
   -3.4927    0.1829    0.0000 C   0  0  0  0  0  0  0  0  0  0  0  0
   -2.8222   -0.2408    0.0000 C   0  0  0  0  0  0  0  0  0  0  0  0
   -2.1022    0.1620    0.0000 C   0  0  0  0  0  0  0  0  0  0  0  0
   -1.3872   -0.2610    0.0000 O   0  0  0  0  0  0  0  0  0  0  0  0
   -4.2183   -0.2344    0.0000 O   0  0  0  0  0  0  0  0  0  0  0  0
   -4.2320    1.4066    0.0000 C   0  0  0  0  0  0  0  0  0  0  0  0
   -2.8078   -1.0519    0.0000 O   0  0  0  0  0  0  0  0  0  0  0  0
   -4.9481    0.9821    0.0000 O   0  0  0  0  0  0  0  0  0  0  0  0
  3  4  1  0
  1  5  1  0
  4  6  1  0
  2  3  1  0
  5  7  1  0
  1  2  2  0
  6  7  1  0
  9 10  2  0
 10 11  1  0
  8  9  1  0
  4 12  2  0
  3  8  2  0
 11 12  1  0
  2 13  1  0
 13 14  2  0
 14 15  1  0
 15 16  2  0
 16  1  1  0
 15 17  1  0
 14 18  1  0
 18 19  1  0
 13 20  1  0
 20 21  1  0
 10 22  1  0
 22 23  1  0
 11 24  2  0
  6 25  1  1
 25 26  1  0
 26 27  2  0
 26 28  1  0
 29 17  1  1
 29 30  1  0
 30 31  1  0
 31 32  1  0
 32 33  1  0
 33 34  1  0
 29 34  1  0
 34 35  1  6
 32 36  1  6
 31 37  1  1
 33 38  1  1
 37 39  1  0
M  END
$$$$
