
     RDKit          2D

 19 20  0  0  0  0  0  0  0  0999 V2000
    5.8225    4.7652    0.0000 C   0  0  0  0  0  0  0  0  0  0  0  0
    5.8225    5.5902    0.0000 C   0  0  0  0  0  0  0  0  0  0  0  0
    5.1080    4.3527    0.0000 C   0  0  0  0  0  0  0  0  0  0  0  0
    5.1080    6.0027    0.0000 C   0  0  0  0  0  0  0  0  0  0  0  0
    4.3935    4.7652    0.0000 C   0  0  0  0  0  0  0  0  0  0  0  0
    1.9481    3.4956    0.0000 C   0  0  0  0  0  0  0  0  0  0  0  0
    2.2031    4.2803    0.0000 C   0  0  0  0  0  0  0  0  0  0  0  0
    3.6791    6.0027    0.0000 C   0  0  0  0  0  0  0  0  0  0  0  0
    1.5356    5.5902    0.0000 C   0  0  0  0  0  0  0  0  0  0  0  0
    4.3935    5.5902    0.0000 C   0  0  0  0  0  0  0  0  0  0  0  0
    2.2501    6.0027    0.0000 C   0  0  0  0  0  0  0  0  0  0  0  0
    0.8682    4.2803    0.0000 C   0  0  0  0  0  0  0  0  0  0  0  0
    1.1231    3.4956    0.0000 N   0  0  0  0  0  0  0  0  0  0  0  0
    2.9646    5.5902    0.0000 N   0  0  0  0  0  0  0  0  0  0  0  0
    1.5356    4.7652    0.0000 N   0  0  0  0  0  0  0  0  0  0  0  0
    0.0836    4.5352    0.0000 N   0  0  0  0  0  0  0  0  0  0  0  0
    2.2501    6.8277    0.0000 O   0  0  0  0  0  0  0  0  0  0  0  0
   -0.5295    3.9832    0.0000 O   0  0  0  0  0  0  0  0  0  0  0  0
   -0.0879    5.3422    0.0000 O   0  0  0  0  0  0  0  0  0  0  0  0
  2  1  2  0
  3  1  1  0
  4  2  1  0
  5  3  2  0
  7  6  2  0
 10  4  2  0
 10  5  1  0
 10  8  1  0
 11  9  1  0
 13  6  1  0
 13 12  2  0
 14  8  1  0
 14 11  2  3
 15  7  1  0
 15  9  1  0
 15 12  1  0
 16 12  1  0
 17 11  1  0
 18 16  1  0
 19 16  2  0
M  CHG  2  16   1  18  -1
M  END
$$$$
