
     RDKit          2D

 21 24  0  0  0  0  0  0  0  0999 V2000
   -2.3755    5.5344    0.0000 C   0  0  0  0  0  0  0  0  0  0  0  0
    0.0000    0.0000    0.0000 C   0  0  0  0  0  0  0  0  0  0  0  0
    0.7145   -0.4125    0.0000 C   0  0  0  0  0  0  0  0  0  0  0  0
    0.0000    0.8250    0.0000 C   0  0  0  0  0  0  0  0  0  0  0  0
    1.4289    0.0000    0.0000 C   0  0  0  0  0  0  0  0  0  0  0  0
   -1.3395    3.8567    0.0000 C   0  0  0  0  0  0  0  0  0  0  0  0
   -1.8674    3.3586    0.0000 C   0  0  0  0  0  0  0  0  0  0  0  0
   -0.2690    4.8258    0.0000 C   0  0  0  0  0  0  0  0  0  0  0  0
   -0.5575    4.3667    0.0000 C   0  0  0  0  0  0  0  0  0  0  0  0
    1.7065    2.1307    0.0000 C   0  0  0  0  0  0  0  0  0  0  0  0
   -1.1741    4.6166    0.0000 C   0  0  0  0  0  0  0  0  0  0  0  0
   -1.5078    4.1637    0.0000 C   0  0  0  0  0  0  0  0  0  0  0  0
    0.0369    4.0553    0.0000 C   0  0  0  0  0  0  0  0  0  0  0  0
    0.7145    1.2375    0.0000 C   0  0  0  0  0  0  0  0  0  0  0  0
    0.8860    2.0445    0.0000 C   0  0  0  0  0  0  0  0  0  0  0  0
    1.4289    0.8250    0.0000 C   0  0  0  0  0  0  0  0  0  0  0  0
    0.3340    2.6576    0.0000 C   0  0  0  0  0  0  0  0  0  0  0  0
    2.0420    1.3770    0.0000 N   0  0  0  0  0  0  0  0  0  0  0  0
   -1.8142    4.9297    0.0000 N   0  0  0  0  0  0  0  0  0  0  0  0
   -0.4730    2.4860    0.0000 O   0  0  0  0  0  0  0  0  0  0  0  0
    0.5889    3.4422    0.0000 O   0  0  0  0  0  0  0  0  0  0  0  0
  3  2  2  0
  4  2  1  0
  5  3  1  0
  7  6  1  0
 11  6  1  6
 11  8  1  0
 12  7  1  1
 12  9  1  0
 13  8  1  0
 13  9  1  0
 14  4  2  0
 15 10  2  0
 15 14  1  0
 16  5  2  0
 16 14  1  0
 17 15  1  0
 18 10  1  0
 18 16  1  0
 19  1  1  0
 19 11  1  0
 19 12  1  0
 20 17  2  0
 13 21  1  1
 21 17  1  0
M  END
$$$$
