
     RDKit          2D

  7  6  0  0  0  0  0  0  0  0999 V2000
    2.3165    2.4554    0.0000 C   0  0  0  0  0  0  0  0  0  0  0  0
    2.7290    1.7410    0.0000 C   0  0  0  0  0  0  0  0  0  0  0  0
    3.5540    1.7410    0.0000 C   0  0  0  0  0  0  0  0  0  0  0  0
    2.3165    1.0265    0.0000 N   0  0  0  0  0  0  0  0  0  0  0  0
    3.9665    1.0265    0.0000 O   0  0  0  0  0  0  0  0  0  0  0  0
    3.9665    2.4554    0.0000 O   0  0  0  0  0  0  0  0  0  0  0  0
    1.4915    2.4554    0.0000 S   0  0  0  0  0  0  0  0  0  0  0  0
  2  1  1  0
  2  3  1  0
  2  4  1  1
  5  3  2  0
  6  3  1  0
  7  1  1  0
M  END
$$$$
