
     RDKit          2D

 13 12  0  0  0  0  0  0  0  0999 V2000
    2.0145    0.2251    0.0000 C   0  0  0  0  0  0  0  0  0  0  0  0
    2.7290   -0.1873    0.0000 C   0  0  0  0  0  0  0  0  0  0  0  0
    3.4435    0.2251    0.0000 C   0  0  0  0  0  0  0  0  0  0  0  0
    4.1579   -0.1873    0.0000 C   0  0  0  0  0  0  0  0  0  0  0  0
    4.8724    0.2251    0.0000 C   0  0  0  0  0  0  0  0  0  0  0  0
    5.5869   -0.1873    0.0000 C   0  0  0  0  0  0  0  0  0  0  0  0
    1.3000   -0.1873    0.0000 O   0  0  0  0  0  0  0  0  0  0  0  0
    2.7290   -1.0123    0.0000 O   0  0  0  0  0  0  0  0  0  0  0  0
    3.4435    1.0501    0.0000 O   0  0  0  0  0  0  0  0  0  0  0  0
    4.1579   -1.0123    0.0000 O   0  0  0  0  0  0  0  0  0  0  0  0
    4.8724    1.0501    0.0000 O   0  0  0  0  0  0  0  0  0  0  0  0
    6.3013    0.2251    0.0000 O   0  0  0  0  0  0  0  0  0  0  0  0
    5.5869   -1.0123    0.0000 O   0  0  0  0  0  0  0  0  0  0  0  0
  2  1  1  0
  3  2  1  0
  3  4  1  0
  4  5  1  0
  5  6  1  0
  7  1  1  0
  2  8  1  6
  3  9  1  1
  4 10  1  1
  5 11  1  1
 12  6  2  0
 13  6  1  0
M  CHG  1  13  -1
M  END
$$$$
