Guaiacol
     RDKit          2D

  9  9  0  0  0  0  0  0  0  0999 V2000
    6.7374   -6.2455    0.0000 O   0  0  0  0  0  0  0  0  0  0  0  0
    5.3201   -5.4102    0.0000 O   0  0  0  0  0  0  0  0  0  0  0  0
    6.0288   -6.6629    0.0000 C   0  0  0  0  0  0  0  0  0  0  0  0
    5.3201   -6.2455    0.0000 C   0  0  0  0  0  0  0  0  0  0  0  0
    6.0288   -7.4980    0.0000 C   0  0  0  0  0  0  0  0  0  0  0  0
    4.6086   -6.6629    0.0000 C   0  0  0  0  0  0  0  0  0  0  0  0
    5.3201   -7.9156    0.0000 C   0  0  0  0  0  0  0  0  0  0  0  0
    4.6086   -7.4980    0.0000 C   0  0  0  0  0  0  0  0  0  0  0  0
    7.4669   -6.6671    0.0000 C   0  0  0  0  0  0  0  0  0  0  0  0
  1  3  1  0
  1  9  1  0
  2  4  1  0
  3  4  2  0
  3  5  1  0
  4  6  1  0
  5  7  2  0
  6  8  2  0
  7  8  1  0
M  END
$$$$
