
     RDKit          2D

 14 14  0  0  0  0  0  0  0  0999 V2000
   -1.4289    0.2062    0.0000 O   0  0  0  0  0  0  0  0  0  0  0  0
   -0.7145   -1.0312    0.0000 N   0  0  0  0  0  0  0  0  0  0  0  0
    0.0000    0.2062    0.0000 C   0  0  0  0  0  0  0  0  0  0  0  0
   -0.7145   -0.2062    0.0000 C   0  0  0  0  0  0  0  0  0  0  0  0
    0.0000    1.0312    0.0000 C   0  0  0  0  0  0  0  0  0  0  0  0
    0.7144   -0.2062    0.0000 C   0  0  0  0  0  0  0  0  0  0  0  0
    0.7144    1.4437    0.0000 C   0  0  0  0  0  0  0  0  0  0  0  0
    1.4289    0.2062    0.0000 C   0  0  0  0  0  0  0  0  0  0  0  0
    1.4289    1.0312    0.0000 C   0  0  0  0  0  0  0  0  0  0  0  0
   -1.4289   -1.4437    0.0000 C   0  0  0  0  0  0  0  0  0  0  0  0
    0.0000   -1.4437    0.0000 C   0  0  0  0  0  0  0  0  0  0  0  0
    0.7144    2.2687    0.0000 C   0  0  0  0  0  0  0  0  0  0  0  0
   -1.4289   -2.2687    0.0000 C   0  0  0  0  0  0  0  0  0  0  0  0
    0.0000   -2.2687    0.0000 C   0  0  0  0  0  0  0  0  0  0  0  0
  1  4  2  0
  2  4  1  0
  2 10  1  0
  2 11  1  0
  3  4  1  0
  3  5  2  0
  3  6  1  0
  5  7  1  0
  6  8  2  0
  7  9  2  0
  7 12  1  0
  8  9  1  0
 10 13  1  0
 11 14  1  0
M  END
$$$$
