
     RDKit          2D

 11 11  0  0  0  0  0  0  0  0999 V2000
   -1.3297    0.5934    0.0000 C   0  0  0  0  0  0  0  0  0  0  0  0
   -1.8281    1.2532    0.0000 O   0  0  0  0  0  0  0  0  0  0  0  0
   -0.5152    0.6829    0.0000 N   0  0  0  0  0  0  0  0  0  0  0  0
   -1.6730   -0.1588    0.0000 N   0  0  0  0  0  0  0  0  0  0  0  0
    0.3708   -1.2532    0.0000 N   0  0  0  0  0  0  0  0  0  0  0  0
    0.7811    0.0147    0.0000 N   0  0  0  0  0  0  0  0  0  0  0  0
    1.0455   -0.7668    0.0000 C   0  0  0  0  0  0  0  0  0  0  0  0
   -0.2862   -0.7757    0.0000 C   0  0  0  0  0  0  0  0  0  0  0  0
   -0.0288    0.0081    0.0000 C   0  0  0  0  0  0  0  0  0  0  0  0
    1.8281   -1.0106    0.0000 O   0  0  0  0  0  0  0  0  0  0  0  0
   -1.0693   -1.0268    0.0000 O   0  0  0  0  0  0  0  0  0  0  0  0
  2  1  2  0
  3  1  1  0
  4  1  1  0
  9  3  1  0
  7  5  1  0
  8  5  1  0
  7  6  1  0
  9  6  1  0
 10  7  2  0
  9  8  1  0
 11  8  2  0
M  END
$$$$
