
     RDKit          2D

 32 36  0  0  1  0  0  0  0  0999 V2000
   -6.3681   -0.6872    0.0000 C   0  0  0  0  0  0  0  0  0  0  0  0
   -7.1077   -0.3216    0.0000 C   0  0  0  0  0  0  0  0  0  0  0  0
   -7.1609    0.5017    0.0000 C   0  0  0  0  0  0  0  0  0  0  0  0
   -6.4745    0.9594    0.0000 C   0  0  0  0  0  0  0  0  0  0  0  0
   -5.7349    0.5938    0.0000 C   0  0  0  0  0  0  0  0  0  0  0  0
   -5.6817   -0.2295    0.0000 C   0  0  0  0  0  0  0  0  0  0  0  0
   -4.9422   -0.5950    0.0000 F   0  0  0  0  0  0  0  0  0  0  0  0
   -5.0485    1.0515    0.0000 C   0  0  0  0  0  0  0  0  0  0  0  0
   -4.3090    0.6860    0.0000 N   0  0  0  0  0  0  0  0  0  0  0  0
   -3.6226    1.1437    0.0000 C   0  0  0  0  0  0  0  0  0  0  0  0
   -3.6758    1.9669    0.0000 O   0  0  0  0  0  0  0  0  0  0  0  0
   -2.8830    0.7781    0.0000 C   0  0  0  0  0  0  0  0  0  0  0  0
   -2.1966    1.2358    0.0000 C   0  0  0  0  0  0  0  0  0  0  0  0
   -1.4570    0.8702    0.0000 N   0  0  0  0  0  0  0  0  0  0  0  0
   -1.4038    0.0469    0.0000 C   0  0  0  0  0  0  0  0  0  0  0  0
   -2.0902   -0.4108    0.0000 C   0  0  0  0  0  0  0  0  0  0  0  0
   -2.8298   -0.0452    0.0000 C   0  0  0  0  0  0  0  0  0  0  0  0
   -3.5162   -0.5029    0.0000 O   0  0  0  0  0  0  0  0  0  0  0  0
   -2.0370   -1.2341    0.0000 O   0  0  0  0  0  0  0  0  0  0  0  0
   -0.6643   -0.3187    0.0000 C   0  0  0  0  0  0  0  0  0  0  0  0
   -0.6111   -1.1419    0.0000 O   0  0  0  0  0  0  0  0  0  0  0  0
    0.0221    0.1390    0.0000 N   0  0  0  0  0  0  0  0  0  0  0  0
    0.6990   -0.3327    0.0000 C   0  0  0  0  0  0  0  0  0  0  0  0
    1.4898   -0.0976    0.0000 C   0  0  0  0  0  0  0  0  0  0  0  0
    1.7991    0.6672    0.0000 C   0  0  0  0  0  0  0  0  0  0  0  0
    1.3939    1.3859    0.0000 C   0  0  0  0  0  0  0  0  0  0  0  0
    1.2613    0.4397    0.0000 C   0  0  0  0  0  0  0  0  0  0  0  0
    0.5795    1.5172    0.0000 O   0  0  0  0  0  0  0  0  0  0  0  0
   -0.0311    0.9623    0.0000 C   0  0  0  0  0  0  0  0  0  0  0  0
   -0.7706    1.3279    0.0000 C   0  0  0  0  0  0  0  0  0  0  0  0
   -6.5277    1.7827    0.0000 F   0  0  0  0  0  0  0  0  0  0  0  0
   -7.7941   -0.7793    0.0000 F   0  0  0  0  0  0  0  0  0  0  0  0
  1  2  2  0
  2  3  1  0
  3  4  2  0
  4  5  1  0
  5  6  2  0
  1  6  1  0
  6  7  1  0
  5  8  1  0
  8  9  1  0
  9 10  1  0
 10 11  2  0
 10 12  1  0
 12 13  2  0
 13 14  1  0
 14 15  1  0
 15 16  2  0
 16 17  1  0
 12 17  1  0
 17 18  2  0
 16 19  1  0
 15 20  1  0
 20 21  2  0
 20 22  1  0
 22 23  1  0
 23 24  1  6
 24 25  1  0
 26 25  1  6
 26 27  1  0
 23 27  1  0
 26 28  1  0
 28 29  1  0
 29 22  1  0
 29 30  1  1
 14 30  1  0
  4 31  1  0
  2 32  1  0
M  END
$$$$
