
     RDKit          2D

  9  8  0  0  0  0  0  0  0  0999 V2000
    4.7436    0.3208    0.0000 C   0  0  0  0  0  0  0  0  0  0  0  0
    5.4581   -0.0917    0.0000 C   0  0  0  0  0  0  0  0  0  0  0  0
    6.1725    0.3208    0.0000 C   0  0  0  0  0  0  0  0  0  0  0  0
    6.8870   -0.0917    0.0000 C   0  0  0  0  0  0  0  0  0  0  0  0
    7.6015    0.3208    0.0000 O   0  0  0  0  0  0  0  0  0  0  0  0
    6.8870   -0.9167    0.0000 O   0  0  0  0  0  0  0  0  0  0  0  0
    6.1725    1.1458    0.0000 O   0  0  0  0  0  0  0  0  0  0  0  0
    5.4581   -0.9167    0.0000 O   0  0  0  0  0  0  0  0  0  0  0  0
    4.0291   -0.0917    0.0000 O   0  0  0  0  0  0  0  0  0  0  0  0
  1  2  1  0
  2  3  1  0
  3  4  1  0
  4  5  2  0
  4  6  1  0
  3  7  1  1
  2  8  1  1
  1  9  1  0
M  CHG  1   6  -1
M  END
$$$$
