
     RDKit          2D

  4  3  0  0  0  0  0  0  0  0999 V2000
    0.0000   -0.0000    0.0000 C   0  0  0  0  0  0  0  0  0  0  0  0
    0.4125    0.7145    0.0000 N   0  0  0  0  0  0  0  0  0  0  0  0
    0.4125   -0.7145    0.0000 N   0  0  0  0  0  0  0  0  0  0  0  0
   -0.8250   -0.0000    0.0000 O   0  0  0  0  0  0  0  0  0  0  0  0
  2  1  2  3
  3  1  1  0
  4  1  1  0
M  END
$$$$
