
     RDKit          2D

  4  3  0  0  0  0  0  0  0  0999 V2000
    1.1959    0.6180    0.0000 O   0  0  0  0  0  0  0  0  0  0  0  0
    0.4534   -0.6180    0.0000 O   0  0  0  0  0  0  0  0  0  0  0  0
    0.4534    0.2070    0.0000 C   0  0  0  0  0  0  0  0  0  0  0  0
   -0.2059    0.6180    0.0000 O   0  0  0  0  0  0  0  0  0  0  0  0
  1  3  2  0
  2  3  1  0
  3  4  1  0
M  CHG  1   2  -1
M  END
$$$$
