
     RDKit          2D

  4  3  0  0  0  0  0  0  0  0999 V2000
    0.0409    0.6186    0.0000 O   0  0  0  0  0  0  0  0  0  0  0  0
    0.7015   -0.6186    0.0000 O   0  0  0  0  0  0  0  0  0  0  0  0
    0.0409   -0.2064    0.0000 B   0  0  0  0  0  0  0  0  0  0  0  0
   -0.7015   -0.6186    0.0000 O   0  0  0  0  0  0  0  0  0  0  0  0
  1  3  1  0
  2  3  1  0
  3  4  1  0
M  END
$$$$
