 
     RDKit          2D

  9  8  0  0  1  0  0  0  0  0999 V2000
   17.6617  -16.2685    0.0000 O   0  0  0  0  0  0  0  0  0  0  0  0
   18.3807  -15.8640    0.0000 C   0  0  0  0  0  0  0  0  0  0  0  0
   19.1447  -16.2685    0.0000 C   0  0  0  0  0  0  0  0  0  0  0  0
   19.8638  -15.8640    0.0000 C   0  0  0  0  0  0  0  0  0  0  0  0
   20.5828  -16.2685    0.0000 C   0  0  0  0  0  0  0  0  0  0  0  0
   18.3807  -15.0102    0.0000 O   0  0  0  0  0  0  0  0  0  0  0  0
   19.1447  -17.1224    0.0000 N   0  0  0  0  0  0  0  0  0  0  0  0
   21.3468  -15.8191    0.0000 Se  0  0  0  0  0  2  0  0  0  0  0  0
   22.5152  -16.2685    0.0000 C   0  0  0  0  0  0  0  0  0  0  0  0
  1  2  1  0
  2  3  1  0
  3  4  1  0
  4  5  1  0
  2  6  2  0
  3  7  1  6
  5  8  1  0
  8  9  1  0
M  END
$$$$
