
     RDKit          2D

 10 10  0  0  0  0  0  0  0  0999 V2000
   -0.0417    1.6523    0.0000 O   0  0  0  0  0  0  0  0  0  0  0  0
   -0.0417    0.8258    0.0000 C   0  0  0  0  0  0  0  0  0  0  0  0
   -0.7022    0.4125    0.0000 C   0  0  0  0  0  0  0  0  0  0  0  0
   -0.7022   -0.4125    0.0000 C   0  0  0  0  0  0  0  0  0  0  0  0
   -0.0417   -0.8258    0.0000 C   0  0  0  0  0  0  0  0  0  0  0  0
    0.7022   -0.4125    0.0000 C   0  0  0  0  0  0  0  0  0  0  0  0
    0.7022    0.4125    0.0000 C   0  0  0  0  0  0  0  0  0  0  0  0
    1.4460    0.8258    0.0000 O   0  0  0  0  0  0  0  0  0  0  0  0
   -1.4460   -0.8258    0.0000 C   0  0  0  0  0  0  0  0  0  0  0  0
   -1.4460   -1.6523    0.0000 O   0  0  0  0  0  0  0  0  0  0  0  0
  1  2  1  0
  2  3  2  0
  2  7  1  0
  3  4  1  0
  4  5  2  0
  4  9  1  0
  5  6  1  0
  6  7  2  0
  7  8  1  0
  9 10  2  0
M  END
$$$$
