
     RDKit          2D

 42 48  0  0  0  0  0  0  0  0999 V2000
    1.9891    2.7088    0.0000 O   0  0  0  0  0  0  0  0  0  0  0  0
    1.1641    2.7088    0.0000 C   0  0  0  0  0  0  0  0  0  0  0  0
    0.3410    2.7068    0.0000 N   0  0  0  0  0  0  0  0  0  0  0  0
    0.3410    1.2795    0.0000 C   0  0  0  0  0  0  0  0  0  0  0  0
    1.1641    1.2816    0.0000 C   0  0  0  0  0  0  0  0  0  0  0  0
    1.5756    1.9941    0.0000 O   0  0  0  0  0  0  0  0  0  0  0  0
    1.1641    0.1208    0.0000 N   0  0  0  0  0  0  0  0  0  0  0  0
    0.4495   -0.2927    0.0000 C   0  0  0  0  0  0  0  0  0  0  0  0
   -0.2650    0.1208    0.0000 O   0  0  0  0  0  0  0  0  0  0  0  0
    0.4495   -1.1178    0.0000 C   0  0  0  0  0  0  0  0  0  0  0  0
   -0.2629   -1.5335    0.0000 C   0  0  0  0  0  0  0  0  0  0  0  0
   -0.2629   -2.3648    0.0000 C   0  0  0  0  0  0  0  0  0  0  0  0
   -0.9756   -2.7804    0.0000 C   0  0  0  0  0  0  0  0  0  0  0  0
   -0.9756   -3.6118    0.0000 C   0  0  0  0  0  0  0  0  0  0  0  0
   -0.2629   -4.0274    0.0000 C   0  0  0  0  0  0  0  0  0  0  0  0
    0.4495   -3.6118    0.0000 C   0  0  0  0  0  0  0  0  0  0  0  0
    0.4495   -2.7804    0.0000 C   0  0  0  0  0  0  0  0  0  0  0  0
    1.1620   -2.3648    0.0000 N   0  0  0  0  0  0  0  0  0  0  0  0
    1.1620   -1.5335    0.0000 C   0  0  0  0  0  0  0  0  0  0  0  0
    1.8764   -2.7784    0.0000 C   0  0  0  0  0  0  0  0  0  0  0  0
   -0.2629   -4.8606    0.0000 C   0  0  0  0  0  0  0  0  0  0  0  0
   -1.6881   -4.8606    0.0000 N   0  0  0  0  0  0  0  0  0  0  0  0
   -1.6881   -4.0274    0.0000 C   0  0  0  0  0  0  0  0  0  0  0  0
   -2.4006   -3.6118    0.0000 C   0  0  0  0  0  0  0  0  0  0  0  0
   -2.4006   -2.7804    0.0000 C   0  0  0  0  0  0  0  0  0  0  0  0
   -1.6881   -2.3648    0.0000 C   0  0  0  0  0  0  0  0  0  0  0  0
    1.9891    1.2816    0.0000 C   0  0  0  0  0  0  0  0  0  0  0  0
    2.4007    1.9941    0.0000 C   0  0  0  0  0  0  0  0  0  0  0  0
    2.4007    0.5669    0.0000 C   0  0  0  0  0  0  0  0  0  0  0  0
   -0.2445    0.6962    0.0000 O   0  0  0  0  0  0  0  0  0  0  0  0
   -0.0725    3.4234    0.0000 C   0  0  0  0  0  0  0  0  0  0  0  0
   -0.8997    3.4234    0.0000 C   0  0  0  0  0  0  0  0  0  0  0  0
   -1.3112    4.1379    0.0000 C   0  0  0  0  0  0  0  0  0  0  0  0
   -2.0258    3.7244    0.0000 C   0  0  0  0  0  0  0  0  0  0  0  0
   -1.3112    2.7088    0.0000 C   0  0  0  0  0  0  0  0  0  0  0  0
    0.3410    4.1398    0.0000 C   0  0  0  0  0  0  0  0  0  0  0  0
    1.1641    4.1398    0.0000 N   0  0  0  0  0  0  0  0  0  0  0  0
    1.5756    3.4214    0.0000 C   0  0  0  0  0  0  0  0  0  0  0  0
    2.4007    3.4214    0.0000 C   0  0  0  0  0  0  0  0  0  0  0  0
    2.4007    4.8544    0.0000 C   0  0  0  0  0  0  0  0  0  0  0  0
    1.5756    4.8544    0.0000 C   0  0  0  0  0  0  0  0  0  0  0  0
   -0.0603    4.8606    0.0000 O   0  0  0  0  0  0  0  0  0  0  0  0
  2  1  1  1
  2  3  1  0
  2  6  1  0
 38  2  1  0
  3  4  1  0
 31  3  1  0
  5  4  1  0
  4 30  2  0
  5  7  1  1
  5 27  1  0
  5  6  1  0
  7  8  1  0
  8  9  2  0
 10  8  1  1
 10 11  1  0
 10 19  1  0
 12 11  1  1
 12 13  1  0
 17 12  1  0
 13 14  2  0
 13 26  1  0
 14 15  1  0
 14 23  1  0
 15 21  2  0
 16 15  1  0
 17 16  1  6
 17 18  1  0
 18 20  1  0
 19 18  1  0
 21 22  1  0
 23 22  1  0
 23 24  2  0
 25 24  1  0
 26 25  2  0
 27 28  1  0
 27 29  1  0
 32 31  1  0
 31 36  1  1
 32 33  1  0
 32 35  1  6
 33 34  1  0
 36 42  2  0
 37 36  1  0
 37 41  1  0
 38 37  1  0
 38 39  1  1
 39 40  1  0
 41 40  1  0
M  END
$$$$
