
     RDKit          2D

 51 55  0  0  0  0  0  0  0  0999 V2000
   -4.4295   -3.3442    0.0000 C   0  0  0  0  0  0  0  0  0  0  0  0
   -3.8461   -2.7608    0.0000 C   0  0  0  0  0  0  0  0  0  0  0  0
   -4.4295   -2.1774    0.0000 C   0  0  0  0  0  0  0  0  0  0  0  0
   -3.4336   -2.0463    0.0000 C   0  0  0  0  0  0  0  0  0  0  0  0
   -3.1316   -3.1733    0.0000 O   0  0  0  0  0  0  0  0  0  0  0  0
   -2.4172   -2.7608    0.0000 C   0  0  0  0  0  0  0  0  0  0  0  0
   -2.4172   -1.9358    0.0000 O   0  0  0  0  0  0  0  0  0  0  0  0
   -1.7027   -3.1733    0.0000 N   0  0  0  0  0  0  0  0  0  0  0  0
   -1.1193   -2.5899    0.0000 C   0  0  0  0  0  0  0  0  0  0  0  0
   -0.3223   -2.8035    0.0000 C   0  0  0  0  0  0  0  0  0  0  0  0
   -0.3223   -3.6285    0.0000 C   0  0  0  0  0  0  0  0  0  0  0  0
    0.2609   -2.2201    0.0000 C   0  0  0  0  0  0  0  0  0  0  0  0
    0.4745   -3.0170    0.0000 C   0  0  0  0  0  0  0  0  0  0  0  0
   -1.1193   -1.7649    0.0000 C   0  0  0  0  0  0  0  0  0  0  0  0
   -1.5318   -1.0505    0.0000 O   0  0  0  0  0  0  0  0  0  0  0  0
   -0.5360   -1.1816    0.0000 N   0  0  0  0  0  0  0  0  0  0  0  0
    0.1911   -0.0621    0.0000 C   0  0  0  0  0  0  0  0  0  0  0  0
   -0.5790   -0.3577    0.0000 C   0  0  0  0  0  0  0  0  0  0  0  0
    0.2609   -1.3951    0.0000 C   0  0  0  0  0  0  0  0  0  0  0  0
    0.7102   -0.7032    0.0000 C   0  0  0  0  0  0  0  0  0  0  0  0
    1.4247   -1.1157    0.0000 O   0  0  0  0  0  0  0  0  0  0  0  0
    2.1392   -0.7032    0.0000 C   0  0  0  0  0  0  0  0  0  0  0  0
    3.5194   -0.3334    0.0000 C   0  0  0  0  0  0  0  0  0  0  0  0
    3.3059    0.4634    0.0000 C   0  0  0  0  0  0  0  0  0  0  0  0
    2.5090    0.6770    0.0000 C   0  0  0  0  0  0  0  0  0  0  0  0
    1.9256    0.0936    0.0000 N   0  0  0  0  0  0  0  0  0  0  0  0
    2.9361   -0.9167    0.0000 C   0  0  0  0  0  0  0  0  0  0  0  0
    3.1496   -1.7136    0.0000 C   0  0  0  0  0  0  0  0  0  0  0  0
    3.9465   -1.9272    0.0000 C   0  0  0  0  0  0  0  0  0  0  0  0
    4.5298   -1.3438    0.0000 C   0  0  0  0  0  0  0  0  0  0  0  0
    4.3162   -0.5469    0.0000 C   0  0  0  0  0  0  0  0  0  0  0  0
    3.8893    1.0468    0.0000 O   0  0  0  0  0  0  0  0  0  0  0  0
   -1.2936    0.0547    0.0000 C   0  0  0  0  0  0  0  0  0  0  0  0
   -1.2936    0.8797    0.0000 O   0  0  0  0  0  0  0  0  0  0  0  0
   -2.0080   -0.3577    0.0000 N   0  0  0  0  0  0  0  0  0  0  0  0
   -2.7224    0.0547    0.0000 C   0  0  0  0  0  0  0  0  0  0  0  0
   -3.3059   -0.5286    0.0000 C   0  0  0  0  0  0  0  0  0  0  0  0
   -3.5194    0.2682    0.0000 C   0  0  0  0  0  0  0  0  0  0  0  0
   -4.1028   -0.7421    0.0000 C   0  0  0  0  0  0  0  0  0  0  0  0
   -4.6862   -0.1588    0.0000 C   0  0  0  0  0  0  0  0  0  0  0  0
   -2.7224    0.8797    0.0000 C   0  0  0  0  0  0  0  0  0  0  0  0
   -2.3099    1.5941    0.0000 N   0  0  0  0  0  0  0  0  0  0  0  0
   -3.4370    1.2922    0.0000 O   0  0  0  0  0  0  0  0  0  0  0  0
   -2.3099    2.4191    0.0000 S   0  0  0  0  0  0  0  0  0  0  0  0
   -3.1349    2.4191    0.0000 O   0  0  0  0  0  0  0  0  0  0  0  0
   -2.8934    3.0025    0.0000 O   0  0  0  0  0  0  0  0  0  0  0  0
   -1.5955    2.8316    0.0000 C   0  0  0  0  0  0  0  0  0  0  0  0
   -1.3820    3.6285    0.0000 C   0  0  0  0  0  0  0  0  0  0  0  0
   -0.9695    2.9140    0.0000 C   0  0  0  0  0  0  0  0  0  0  0  0
    4.1822   -2.7227    0.0000 Cl  0  0  0  0  0  0  0  0  0  0  0  0
    4.6862    1.2603    0.0000 C   0  0  0  0  0  0  0  0  0  0  0  0
  1  2  1  0
  2  3  1  0
  2  4  1  0
  2  5  1  0
  5  6  1  0
  6  7  2  0
  6  8  1  0
  9  8  1  6
 10 11  1  0
 10 12  1  0
 10 13  1  0
  9 14  1  0
 14 15  2  0
 14 16  1  0
 18 16  1  0
 16 19  1  0
 17 18  1  0
 17 20  1  0
 19 20  1  0
 21 22  1  0
 26 22  1  0
 22 27  2  0
 23 24  2  0
 23 27  1  0
 23 31  1  0
 24 25  1  0
 25 26  2  0
 27 28  1  0
 28 29  2  0
 29 30  1  0
 30 31  2  0
 24 32  1  0
 18 33  1  6
 33 34  2  0
 33 35  1  0
 36 37  1  0
 37 38  1  0
 36 38  1  0
 39 40  2  3
 41 42  1  0
 41 43  2  0
 42 44  1  0
 44 45  2  0
 44 46  2  0
 44 47  1  0
 47 48  1  0
 48 49  1  0
 47 49  1  0
 29 50  1  0
 36 35  1  1
 20 21  1  1
 36 41  1  0
 37 39  1  6
  9 10  1  0
 32 51  1  0
M  END
$$$$
