
     RDKit          2D

 13 12  0  0  0  0  0  0  0  0999 V2000
    6.5091   -0.8250    0.0000 C   0  0  0  0  0  0  0  0  0  0  0  0
    5.7946   -1.2375    0.0000 C   0  0  0  0  0  0  0  0  0  0  0  0
    5.7946   -2.0625    0.0000 O   0  0  0  0  0  0  0  0  0  0  0  0
    5.0801   -0.8250    0.0000 O   0  0  0  0  0  0  0  0  0  0  0  0
    6.5091   -0.0000    0.0000 C   0  0  0  0  0  0  0  0  0  0  0  0
    6.5091    0.8250    0.0000 C   0  0  0  0  0  0  0  0  0  0  0  0
    5.7946    1.2375    0.0000 C   0  0  0  0  0  0  0  0  0  0  0  0
    5.7946    2.0625    0.0000 O   0  0  0  0  0  0  0  0  0  0  0  0
    5.0801    0.8250    0.0000 O   0  0  0  0  0  0  0  0  0  0  0  0
    7.3341   -0.0000    0.0000 C   0  0  0  0  0  0  0  0  0  0  0  0
    7.7466    0.7145    0.0000 O   0  0  0  0  0  0  0  0  0  0  0  0
    7.7466   -0.7145    0.0000 O   0  0  0  0  0  0  0  0  0  0  0  0
    5.6841   -0.0000    0.0000 O   0  0  0  0  0  0  0  0  0  0  0  0
  1  2  1  0
  2  3  2  0
  2  4  1  0
  1  5  1  0
  5  6  1  0
  6  7  1  0
  7  8  2  0
  7  9  1  0
  5 10  1  0
 10 11  2  0
 10 12  1  0
  5 13  1  0
M  CHG  3   4  -1   9  -1  12  -1
M  END
$$$$
