
     RDKit          2D

 46 45  0  0  0  0  0  0  0  0999 V2000
   -0.7144    0.5608    0.0000 P   0  0  0  0  0  0  0  0  0  0  0  0
   -0.7144   -0.2641    0.0000 O   0  0  0  0  0  0  0  0  0  0  0  0
    1.4289   -1.5016    0.0000 C   0  0  0  0  0  0  0  0  0  0  0  0
   -1.4289    0.9733    0.0000 O   0  0  0  0  0  0  0  0  0  0  0  0
   -1.4289   -3.1516    0.0000 C   0  0  0  0  0  0  0  0  0  0  0  0
    0.7144    3.0358    0.0000 N   0  0  0  0  0  0  0  0  0  0  0  0
    0.7144   -1.9141    0.0000 O   0  0  0  0  0  0  0  0  0  0  0  0
    0.0000    0.9733    0.0000 O   0  0  0  0  0  0  0  0  0  0  0  0
    0.0000   -0.6766    0.0000 C   0  0  0  0  0  0  0  0  0  0  0  0
    1.4289   -0.6766    0.0000 O   0  0  0  0  0  0  0  0  0  0  0  0
   -1.4289   -3.9766    0.0000 O   0  0  0  0  0  0  0  0  0  0  0  0
   -0.7144   -2.7391    0.0000 O   0  0  0  0  0  0  0  0  0  0  0  0
    0.0000   -1.5016    0.0000 C   0  0  0  0  0  0  0  0  0  0  0  0
    0.0000    1.7983    0.0000 C   0  0  0  0  0  0  0  0  0  0  0  0
   -0.7144   -1.9141    0.0000 C   0  0  0  0  0  0  0  0  0  0  0  0
    0.7144    2.2108    0.0000 C   0  0  0  0  0  0  0  0  0  0  0  0
    1.4289    3.4483    0.0000 C   0  0  0  0  0  0  0  0  0  0  0  0
    0.0000    3.4483    0.0000 C   0  0  0  0  0  0  0  0  0  0  0  0
    3.5723   -1.9141    0.0000 C   0  0  0  0  0  0  0  0  0  0  0  0
    3.5723   -2.7391    0.0000 C   0  0  0  0  0  0  0  0  0  0  0  0
    2.8578   -1.5016    0.0000 C   0  0  0  0  0  0  0  0  0  0  0  0
    2.8578   -3.1516    0.0000 C   0  0  0  0  0  0  0  0  0  0  0  0
    2.1434   -1.9141    0.0000 C   0  0  0  0  0  0  0  0  0  0  0  0
    5.0013   -1.9141    0.0000 C   0  0  0  0  0  0  0  0  0  0  0  0
    5.0013   -2.7391    0.0000 C   0  0  0  0  0  0  0  0  0  0  0  0
    4.2868   -1.5016    0.0000 C   0  0  0  0  0  0  0  0  0  0  0  0
    4.2868   -3.1516    0.0000 C   0  0  0  0  0  0  0  0  0  0  0  0
    6.4303   -1.9141    0.0000 C   0  0  0  0  0  0  0  0  0  0  0  0
    6.4303   -2.7391    0.0000 C   0  0  0  0  0  0  0  0  0  0  0  0
    5.7157   -1.5016    0.0000 C   0  0  0  0  0  0  0  0  0  0  0  0
    5.7157   -3.1516    0.0000 C   0  0  0  0  0  0  0  0  0  0  0  0
   -3.5724   -2.7391    0.0000 C   0  0  0  0  0  0  0  0  0  0  0  0
   -3.5724   -1.9141    0.0000 C   0  0  0  0  0  0  0  0  0  0  0  0
   -2.8578   -3.1516    0.0000 C   0  0  0  0  0  0  0  0  0  0  0  0
   -2.8578   -1.5016    0.0000 C   0  0  0  0  0  0  0  0  0  0  0  0
   -2.1434   -2.7391    0.0000 C   0  0  0  0  0  0  0  0  0  0  0  0
   -5.0013   -2.7391    0.0000 C   0  0  0  0  0  0  0  0  0  0  0  0
   -5.0013   -1.9141    0.0000 C   0  0  0  0  0  0  0  0  0  0  0  0
   -4.2868   -3.1516    0.0000 C   0  0  0  0  0  0  0  0  0  0  0  0
   -4.2868   -1.5016    0.0000 C   0  0  0  0  0  0  0  0  0  0  0  0
   -6.4303   -2.7391    0.0000 C   0  0  0  0  0  0  0  0  0  0  0  0
   -6.4303   -1.9141    0.0000 C   0  0  0  0  0  0  0  0  0  0  0  0
   -5.7158   -3.1516    0.0000 C   0  0  0  0  0  0  0  0  0  0  0  0
   -5.7158   -1.5016    0.0000 C   0  0  0  0  0  0  0  0  0  0  0  0
    0.7089    3.9766    0.0000 C   0  0  0  0  0  0  0  0  0  0  0  0
    0.0031    0.1398    0.0000 O   0  0  0  0  0  0  0  0  0  0  0  0
  2  1  1  0
  3  7  1  0
  4  1  2  0
  5 12  1  0
  6 16  1  0
  7 13  1  0
  8  1  1  0
  9  2  1  0
 10  3  2  0
 11  5  2  0
 12 15  1  0
 13  9  1  0
 14  8  1  0
 15 13  1  0
 16 14  1  0
 17  6  1  0
 18  6  1  0
 21 19  1  0
 22 20  1  0
 23 21  1  0
 26 24  1  0
 27 25  1  0
 19 26  1  0
 20 27  1  0
 29 28  1  0
 30 28  1  0
 31 29  1  0
 24 30  1  0
 25 31  1  0
 23  3  1  0
 34 32  1  0
 35 33  1  0
 36 34  1  0
 39 37  1  0
 40 38  1  0
 32 39  1  0
 33 40  1  0
 42 41  1  0
 43 41  1  0
 44 42  1  0
 37 43  1  0
 38 44  1  0
 36  5  1  0
  6 45  1  0
  1 46  1  0
M  CHG  2   6   1  46  -1
M  END
$$$$
