
     RDKit          2D

 31 35  0  0  0  0  0  0  0  0999 V2000
    1.6346   -5.5246    0.0000 C   0  0  0  0  0  0  0  0  0  0  0  0
    1.0825   -4.9115    0.0000 N   0  0  0  0  0  0  0  0  0  0  0  0
    0.2756   -5.0831    0.0000 C   0  0  0  0  0  0  0  0  0  0  0  0
    0.0206   -5.8677    0.0000 O   0  0  0  0  0  0  0  0  0  0  0  0
   -0.2765   -4.4700    0.0000 C   0  0  0  0  0  0  0  0  0  0  0  0
   -1.0834   -4.6415    0.0000 C   0  0  0  0  0  0  0  0  0  0  0  0
   -1.6355   -4.0284    0.0000 C   0  0  0  0  0  0  0  0  0  0  0  0
   -1.3805   -3.2438    0.0000 C   0  0  0  0  0  0  0  0  0  0  0  0
   -0.5736   -3.0723    0.0000 C   0  0  0  0  0  0  0  0  0  0  0  0
   -0.0215   -3.6854    0.0000 C   0  0  0  0  0  0  0  0  0  0  0  0
    0.7855   -3.5138    0.0000 F   0  0  0  0  0  0  0  0  0  0  0  0
   -1.9326   -2.6307    0.0000 C   0  0  0  0  0  0  0  0  0  0  0  0
   -2.7395   -2.8022    0.0000 C   0  0  0  0  0  0  0  0  0  0  0  0
   -3.2916   -2.1891    0.0000 N   0  0  0  0  0  0  0  0  0  0  0  0
   -3.0366   -1.4045    0.0000 C   0  0  0  0  0  0  0  0  0  0  0  0
   -3.4491   -0.6900    0.0000 N   0  0  0  0  0  0  0  0  0  0  0  0
   -2.8971   -0.0769    0.0000 C   0  0  0  0  0  0  0  0  0  0  0  0
   -2.1434   -0.4125    0.0000 C   0  0  0  0  0  0  0  0  0  0  0  0
   -2.2296   -1.2330    0.0000 N   0  0  0  0  0  0  0  0  0  0  0  0
   -1.6776   -1.8461    0.0000 N   0  0  0  0  0  0  0  0  0  0  0  0
   -1.4289    0.0000    0.0000 C   0  0  0  0  0  0  0  0  0  0  0  0
   -0.7145   -0.4125    0.0000 C   0  0  0  0  0  0  0  0  0  0  0  0
   -0.7145   -1.2375    0.0000 C   0  0  0  0  0  0  0  0  0  0  0  0
    0.0000   -1.6500    0.0000 C   0  0  0  0  0  0  0  0  0  0  0  0
    0.7145   -1.2375    0.0000 C   0  0  0  0  0  0  0  0  0  0  0  0
    0.7145   -0.4125    0.0000 C   0  0  0  0  0  0  0  0  0  0  0  0
    0.0000   -0.0000    0.0000 C   0  0  0  0  0  0  0  0  0  0  0  0
    1.4289   -0.0000    0.0000 C   0  0  0  0  0  0  0  0  0  0  0  0
    2.1434   -0.4125    0.0000 C   0  0  0  0  0  0  0  0  0  0  0  0
    2.1434   -1.2375    0.0000 C   0  0  0  0  0  0  0  0  0  0  0  0
    1.4289   -1.6500    0.0000 N   0  0  0  0  0  0  0  0  0  0  0  0
  1  2  1  0
  2  3  1  0
  3  4  2  0
  3  5  1  0
  5  6  2  0
  6  7  1  0
  7  8  2  0
  8  9  1  0
  9 10  2  0
  5 10  1  0
 10 11  1  0
  8 12  1  0
 12 13  1  0
 13 14  2  0
 14 15  1  0
 15 16  2  0
 16 17  1  0
 17 18  2  0
 18 19  1  0
 15 19  1  0
 19 20  1  0
 12 20  2  0
 18 21  1  0
 21 22  1  0
 22 23  2  0
 23 24  1  0
 24 25  2  0
 25 26  1  0
 26 27  2  0
 22 27  1  0
 26 28  1  0
 28 29  2  0
 29 30  1  0
 30 31  2  0
 25 31  1  0
M  END
$$$$
