
     RDKit          2D

 33 36  0  0  0  0  0  0  0  0999 V2000
   -0.6009    5.1746    0.0000 C   0  0  0  0  0  0  0  0  0  0  0  0
   -0.3459    4.3900    0.0000 N   0  0  0  0  0  0  0  0  0  0  0  0
    0.4610    4.2184    0.0000 C   0  0  0  0  0  0  0  0  0  0  0  0
    1.0131    4.8315    0.0000 O   0  0  0  0  0  0  0  0  0  0  0  0
    0.7160    3.4338    0.0000 C   0  0  0  0  0  0  0  0  0  0  0  0
    1.5229    3.2623    0.0000 C   0  0  0  0  0  0  0  0  0  0  0  0
    1.7779    2.4777    0.0000 C   0  0  0  0  0  0  0  0  0  0  0  0
    1.2258    1.8646    0.0000 C   0  0  0  0  0  0  0  0  0  0  0  0
    0.4189    2.0361    0.0000 C   0  0  0  0  0  0  0  0  0  0  0  0
    0.1639    2.8207    0.0000 C   0  0  0  0  0  0  0  0  0  0  0  0
   -0.6430    2.9922    0.0000 F   0  0  0  0  0  0  0  0  0  0  0  0
    1.4808    1.0799    0.0000 N   0  0  0  0  0  0  0  0  0  0  0  0
    2.2654    0.8250    0.0000 C   0  0  0  0  0  0  0  0  0  0  0  0
    2.9328    1.3099    0.0000 S   0  0  0  0  0  0  0  0  0  0  0  0
    2.2654   -0.0000    0.0000 N   0  0  0  0  0  0  0  0  0  0  0  0
    1.4808   -0.2549    0.0000 C   0  0  0  0  0  0  0  0  0  0  0  0
    1.2258   -1.0396    0.0000 O   0  0  0  0  0  0  0  0  0  0  0  0
    0.9959    0.4125    0.0000 C   0  0  0  0  0  0  0  0  0  0  0  0
    0.4125   -0.1709    0.0000 C   0  0  0  0  0  0  0  0  0  0  0  0
   -0.1709    0.4125    0.0000 C   0  0  0  0  0  0  0  0  0  0  0  0
    0.4125    0.9959    0.0000 C   0  0  0  0  0  0  0  0  0  0  0  0
    2.9328   -0.4849    0.0000 C   0  0  0  0  0  0  0  0  0  0  0  0
    3.6865   -0.1494    0.0000 C   0  0  0  0  0  0  0  0  0  0  0  0
    4.3540   -0.6343    0.0000 C   0  0  0  0  0  0  0  0  0  0  0  0
    4.2677   -1.4548    0.0000 C   0  0  0  0  0  0  0  0  0  0  0  0
    3.5140   -1.7903    0.0000 N   0  0  0  0  0  0  0  0  0  0  0  0
    2.8466   -1.3054    0.0000 C   0  0  0  0  0  0  0  0  0  0  0  0
    4.9352   -1.9397    0.0000 C   0  0  0  0  0  0  0  0  0  0  0  0
    5.6026   -2.4246    0.0000 N   0  0  0  0  0  0  0  0  0  0  0  0
    5.1076   -0.2987    0.0000 C   0  0  0  0  0  0  0  0  0  0  0  0
    5.8613    0.0368    0.0000 F   0  0  0  0  0  0  0  0  0  0  0  0
    5.4432   -1.0524    0.0000 F   0  0  0  0  0  0  0  0  0  0  0  0
    4.7721    0.4549    0.0000 F   0  0  0  0  0  0  0  0  0  0  0  0
  1  2  1  0
  2  3  1  0
  3  4  2  0
  3  5  1  0
  5  6  2  0
  6  7  1  0
  7  8  2  0
  8  9  1  0
  9 10  2  0
  5 10  1  0
 10 11  1  0
  8 12  1  0
 12 13  1  0
 13 14  2  0
 13 15  1  0
 15 16  1  0
 16 17  2  0
 16 18  1  0
 12 18  1  0
 18 19  1  0
 19 20  1  0
 20 21  1  0
 18 21  1  0
 15 22  1  0
 22 23  2  0
 23 24  1  0
 24 25  2  0
 25 26  1  0
 26 27  2  0
 22 27  1  0
 25 28  1  0
 28 29  3  0
 24 30  1  0
 30 31  1  0
 30 32  1  0
 30 33  1  0
M  END
$$$$
