
     RDKit          2D

 95 99  0  0  0  0  0  0  0  0999 V2000
    2.1434    3.0937    0.0000 C   0  0  0  0  0  0  0  0  0  0  0  0
    3.5723   -1.8562    0.0000 C   0  0  0  0  0  0  0  0  0  0  0  0
   -5.0012    3.0937    0.0000 C   0  0  0  0  0  0  0  0  0  0  0  0
   -3.5723   -0.2062    0.0000 C   0  0  0  0  0  0  0  0  0  0  0  0
   -5.0012    2.2687    0.0000 C   0  0  0  0  0  0  0  0  0  0  0  0
   -4.2868    3.5062    0.0000 C   0  0  0  0  0  0  0  0  0  0  0  0
   -3.5723   -1.0312    0.0000 C   0  0  0  0  0  0  0  0  0  0  0  0
   -2.8578    0.2062    0.0000 C   0  0  0  0  0  0  0  0  0  0  0  0
   -2.7409   -5.2577    0.0000 C   0  0  0  0  0  0  0  0  0  0  0  0
   -2.4859   -6.0423    0.0000 C   0  0  0  0  0  0  0  0  0  0  0  0
    2.8578   -4.7437    0.0000 C   0  0  0  0  0  0  0  0  0  0  0  0
    2.8578   -5.5687    0.0000 C   0  0  0  0  0  0  0  0  0  0  0  0
   -4.2868    1.8562    0.0000 C   0  0  0  0  0  0  0  0  0  0  0  0
   -3.5723    3.0937    0.0000 C   0  0  0  0  0  0  0  0  0  0  0  0
   -2.8578   -1.4437    0.0000 C   0  0  0  0  0  0  0  0  0  0  0  0
   -2.1434   -0.2062    0.0000 C   0  0  0  0  0  0  0  0  0  0  0  0
   -2.1888   -4.6446    0.0000 C   0  0  0  0  0  0  0  0  0  0  0  0
   -1.6790   -6.2138    0.0000 C   0  0  0  0  0  0  0  0  0  0  0  0
    2.1434   -4.3312    0.0000 C   0  0  0  0  0  0  0  0  0  0  0  0
    2.8578    4.3312    0.0000 C   0  0  0  0  0  0  0  0  0  0  0  0
    3.5723   -5.9812    0.0000 C   0  0  0  0  0  0  0  0  0  0  0  0
    2.1434    4.7437    0.0000 C   0  0  0  0  0  0  0  0  0  0  0  0
    0.7144    4.7437    0.0000 C   0  0  0  0  0  0  0  0  0  0  0  0
    0.0000    4.3312    0.0000 C   0  0  0  0  0  0  0  0  0  0  0  0
   -2.8578    1.8562    0.0000 C   0  0  0  0  0  0  0  0  0  0  0  0
   -1.4289   -1.4437    0.0000 C   0  0  0  0  0  0  0  0  0  0  0  0
   -0.7144   -3.5062    0.0000 C   0  0  0  0  0  0  0  0  0  0  0  0
   -0.0470   -4.8161    0.0000 C   0  0  0  0  0  0  0  0  0  0  0  0
   -1.4289    4.3312    0.0000 C   0  0  0  0  0  0  0  0  0  0  0  0
    1.4289    3.5062    0.0000 C   0  0  0  0  0  0  0  0  0  0  0  0
   -0.7144    5.5687    0.0000 C   0  0  0  0  0  0  0  0  0  0  0  0
    3.5723    1.4437    0.0000 C   0  0  0  0  0  0  0  0  0  0  0  0
   -0.7144    1.4437    0.0000 C   0  0  0  0  0  0  0  0  0  0  0  0
    0.7144    0.6187    0.0000 C   0  0  0  0  0  0  0  0  0  0  0  0
    2.8578    2.6812    0.0000 C   0  0  0  0  0  0  0  0  0  0  0  0
    2.8578   -1.4437    0.0000 C   0  0  0  0  0  0  0  0  0  0  0  0
   -3.5723    2.2687    0.0000 C   0  0  0  0  0  0  0  0  0  0  0  0
   -2.1434   -1.0312    0.0000 C   0  0  0  0  0  0  0  0  0  0  0  0
   -0.7144   -4.3312    0.0000 C   0  0  0  0  0  0  0  0  0  0  0  0
   -1.3819   -4.8161    0.0000 C   0  0  0  0  0  0  0  0  0  0  0  0
    3.5723    4.7437    0.0000 C   0  0  0  0  0  0  0  0  0  0  0  0
   -1.1269   -5.6007    0.0000 C   0  0  0  0  0  0  0  0  0  0  0  0
    2.1434   -3.5062    0.0000 C   0  0  0  0  0  0  0  0  0  0  0  0
   -2.1434    2.2687    0.0000 C   0  0  0  0  0  0  0  0  0  0  0  0
   -0.7144   -1.0312    0.0000 C   0  0  0  0  0  0  0  0  0  0  0  0
    0.0000   -3.0937    0.0000 C   0  0  0  0  0  0  0  0  0  0  0  0
    2.8578    1.8562    0.0000 C   0  0  0  0  0  0  0  0  0  0  0  0
   -0.7144    0.6187    0.0000 C   0  0  0  0  0  0  0  0  0  0  0  0
    1.4289    0.2062    0.0000 C   0  0  0  0  0  0  0  0  0  0  0  0
   -1.4289    3.5062    0.0000 C   0  0  0  0  0  0  0  0  0  0  0  0
    0.7144    3.0937    0.0000 C   0  0  0  0  0  0  0  0  0  0  0  0
   -1.4289    5.9812    0.0000 C   0  0  0  0  0  0  0  0  0  0  0  0
    2.1434   -1.8562    0.0000 C   0  0  0  0  0  0  0  0  0  0  0  0
    2.8578   -3.0937    0.0000 C   0  0  0  0  0  0  0  0  0  0  0  0
   -1.4289    1.8562    0.0000 C   0  0  0  0  0  0  0  0  0  0  0  0
   -0.7144   -1.8562    0.0000 C   0  0  0  0  0  0  0  0  0  0  0  0
    0.7144   -3.5062    0.0000 C   0  0  0  0  0  0  0  0  0  0  0  0
   -1.4289    0.2062    0.0000 C   0  0  0  0  0  0  0  0  0  0  0  0
    2.1434    0.6187    0.0000 C   0  0  0  0  0  0  0  0  0  0  0  0
    2.1434   -1.0312    0.0000 C   0  0  0  0  0  0  0  0  0  0  0  0
    4.2868    4.3312    0.0000 C   0  0  0  0  0  0  0  0  0  0  0  0
    3.5723    5.5687    0.0000 C   0  0  0  0  0  0  0  0  0  0  0  0
    3.5723   -6.8062    0.0000 N   0  0  0  0  0  0  0  0  0  0  0  0
   -0.3019   -5.6007    0.0000 N   0  0  0  0  0  0  0  0  0  0  0  0
   -2.1434    3.0937    0.0000 N   0  0  0  0  0  0  0  0  0  0  0  0
    1.4289   -3.0937    0.0000 N   0  0  0  0  0  0  0  0  0  0  0  0
   -1.4289   -0.6187    0.0000 N   0  0  0  0  0  0  0  0  0  0  0  0
    0.0000   -2.2687    0.0000 N   0  0  0  0  0  0  0  0  0  0  0  0
    2.1434    1.4437    0.0000 N   0  0  0  0  0  0  0  0  0  0  0  0
   -1.4289    1.0312    0.0000 N   0  0  0  0  0  0  0  0  0  0  0  0
    1.4289   -0.6187    0.0000 N   0  0  0  0  0  0  0  0  0  0  0  0
    2.8578   -2.2687    0.0000 N   0  0  0  0  0  0  0  0  0  0  0  0
    1.4289    4.3312    0.0000 N   0  0  0  0  0  0  0  0  0  0  0  0
   -0.7144    4.7437    0.0000 N   0  0  0  0  0  0  0  0  0  0  0  0
    3.5723    0.6187    0.0000 O   0  0  0  0  0  0  0  0  0  0  0  0
    3.5723    3.0937    0.0000 O   0  0  0  0  0  0  0  0  0  0  0  0
    2.8578   -0.6187    0.0000 O   0  0  0  0  0  0  0  0  0  0  0  0
   -0.7144    3.0937    0.0000 O   0  0  0  0  0  0  0  0  0  0  0  0
    0.7144    2.2687    0.0000 O   0  0  0  0  0  0  0  0  0  0  0  0
    0.0000    3.5062    0.0000 O   0  0  0  0  0  0  0  0  0  0  0  0
   -1.4289    6.8062    0.0000 O   0  0  0  0  0  0  0  0  0  0  0  0
   -2.1434    5.5687    0.0000 O   0  0  0  0  0  0  0  0  0  0  0  0
    3.5723   -3.5062    0.0000 O   0  0  0  0  0  0  0  0  0  0  0  0
   -0.7144    2.2687    0.0000 O   0  0  0  0  0  0  0  0  0  0  0  0
   -1.4289   -2.2687    0.0000 O   0  0  0  0  0  0  0  0  0  0  0  0
    0.7144   -4.3312    0.0000 O   0  0  0  0  0  0  0  0  0  0  0  0
   -2.1434    0.6187    0.0000 O   0  0  0  0  0  0  0  0  0  0  0  0
    2.8578    0.2062    0.0000 O   0  0  0  0  0  0  0  0  0  0  0  0
    2.4789   -0.2775    0.0000 O   0  0  0  0  0  0  0  0  0  0  0  0
    5.0012    4.7437    0.0000 O   0  0  0  0  0  0  0  0  0  0  0  0
    4.2868    3.5062    0.0000 O   0  0  0  0  0  0  0  0  0  0  0  0
    2.8578    5.9812    0.0000 O   0  0  0  0  0  0  0  0  0  0  0  0
    4.2868    5.9812    0.0000 O   0  0  0  0  0  0  0  0  0  0  0  0
    0.0000    1.8562    0.0000 S   0  0  0  0  0  0  0  0  0  0  0  0
    0.7144    1.4437    0.0000 S   0  0  0  0  0  0  0  0  0  0  0  0
  5  3  2  0
  6  3  1  0
  7  4  2  0
  8  4  1  0
 10  9  2  0
 12 11  1  0
 13  5  1  0
 14  6  2  0
 15  7  1  0
 16  8  2  0
 17  9  1  0
 18 10  1  0
 19 11  1  0
 21 12  1  0
 22 20  1  0
 24 23  1  0
 35  1  1  0
 36  2  1  0
 37 13  2  0
 37 14  1  0
 37 25  1  0
 38 15  2  0
 38 16  1  0
 38 26  1  0
 39 27  1  0
 39 28  2  0
 40 17  2  0
 40 39  1  0
 41 20  1  0
 42 18  2  0
 42 40  1  0
 43 19  1  0
 44 25  1  0
 45 26  1  0
 46 27  1  0
 47 32  1  0
 47 35  1  0
 48 33  1  0
 49 34  1  0
 50 29  1  0
 51 30  1  0
 52 31  1  0
 53 36  1  0
 54 43  1  0
 55 44  1  0
 56 45  1  0
 57 46  1  0
 58 48  1  0
 59 49  1  0
 60 53  1  0
 61 41  1  0
 62 41  1  0
 63 21  1  0
 64 28  1  0
 64 42  1  0
 65 44  1  0
 65 50  2  3
 66 43  1  0
 66 57  2  0
 67 45  1  0
 67 58  2  0
 68 46  1  0
 68 56  2  0
 69 47  1  0
 69 59  2  3
 70 48  1  0
 70 55  2  3
 71 49  1  0
 71 60  2  0
 72 53  1  0
 72 54  2  0
 73 22  1  0
 73 23  1  0
 73 30  1  0
 74 24  1  0
 74 29  1  0
 74 31  1  0
 75 32  1  0
 76 35  1  0
 77 36  1  0
 78 50  1  0
 79 51  2  0
 80 51  1  0
 81 52  2  0
 82 52  1  0
 83 54  1  0
 84 55  1  0
 85 56  1  0
 86 57  1  0
 87 58  1  0
 88 59  1  0
 89 60  1  0
 90 61  2  0
 91 61  1  0
 92 62  2  0
 93 62  1  0
 94 33  1  0
 95 34  1  0
 95 94  1  0
M  CHG  4  78  -1  80  -1  82  -1  83  -1
M  END
$$$$
