
     RDKit          2D

 32 36  0  0  1  0  0  0  0  0999 V2000
   -2.4556    1.6589    0.0000 C   0  0  0  0  0  0  0  0  0  0  0  0
   -2.0697   -1.4395    0.0000 C   0  0  0  0  0  0  0  0  0  0  0  0
    2.6283    1.1384    0.0000 C   0  0  0  0  0  0  0  0  0  0  0  0
    0.0912    0.9046    0.0000 C   0  0  0  0  0  0  0  0  0  0  0  0
    2.8023    3.3142    0.0000 C   0  0  0  0  0  0  0  0  0  0  0  0
    1.9823    3.2233    0.0000 C   0  0  0  0  0  0  0  0  0  0  0  0
    4.2683    1.3201    0.0000 C   0  0  0  0  0  0  0  0  0  0  0  0
    3.4483    1.2292    0.0000 C   0  0  0  0  0  0  0  0  0  0  0  0
    4.1109    2.7404    0.0000 C   0  0  0  0  0  0  0  0  0  0  0  0
    0.2148    2.9255    0.0000 C   0  0  0  0  0  0  0  0  0  0  0  0
    0.9884    0.9567    0.0000 C   0  0  0  0  0  0  0  0  0  0  0  0
   -1.1547    0.5422    0.0000 C   0  0  0  0  0  0  0  0  0  0  0  0
   -1.6496    1.8350    0.0000 C   0  0  0  0  0  0  0  0  0  0  0  0
   -1.9880   -0.6185    0.0000 C   0  0  0  0  0  0  0  0  0  0  0  0
    3.2909    2.6495    0.0000 C   0  0  0  0  0  0  0  0  0  0  0  0
    4.5996    2.0757    0.0000 C   0  0  0  0  0  0  0  0  0  0  0  0
    1.6510    2.4678    0.0000 C   0  0  0  0  0  0  0  0  0  0  0  0
    0.8310    2.3769    0.0000 C   0  0  0  0  0  0  0  0  0  0  0  0
    1.8083    1.0475    0.0000 C   0  0  0  0  0  0  0  0  0  0  0  0
   -0.4029    0.8820    0.0000 C   0  0  0  0  0  0  0  0  0  0  0  0
   -0.4973    2.5090    0.0000 C   0  0  0  0  0  0  0  0  0  0  0  0
    2.1396    1.8031    0.0000 C   0  0  0  0  0  0  0  0  0  0  0  0
    2.9596    1.8939    0.0000 C   0  0  0  0  0  0  0  0  0  0  0  0
    0.4997    1.6214    0.0000 C   0  0  0  0  0  0  0  0  0  0  0  0
   -0.3213    1.7030    0.0000 C   0  0  0  0  0  0  0  0  0  0  0  0
   -1.0334    1.2865    0.0000 N   0  0  0  0  0  0  0  0  0  0  0  0
   -2.6582   -0.1374    0.0000 O   0  0  0  0  0  0  0  0  0  0  0  0
    5.4196    2.1665    0.0000 O   0  0  0  0  0  0  0  0  0  0  0  0
    2.2970    0.3828    0.0000 O   0  0  0  0  0  0  0  0  0  0  0  0
    0.2673    0.4009    0.0000 O   0  0  0  0  0  0  0  0  0  0  0  0
   -1.2363   -0.2787    0.0000 O   0  0  0  0  0  0  0  0  0  0  0  0
   -1.3183    2.5906    0.0000 O   0  0  0  0  0  0  0  0  0  0  0  0
  6  5  1  0
  8  7  2  0
 13  1  1  0
 14  2  1  0
 15  5  1  0
 15  9  2  0
 16  7  1  0
 16  9  1  0
 17  6  1  6
 18 10  1  1
 18 17  1  0
 19 11  1  0
 20 12  1  0
 21 10  1  6
 22 17  1  0
 22 19  1  1
 23  3  1  1
 23  8  1  0
 23 15  1  0
 23 22  1  0
 24  4  1  1
 24 11  1  0
 24 18  1  0
 25 20  1  1
 25 21  1  0
 25 24  1  0
 26 13  2  0
 26 25  1  0
 27 14  2  0
 28 16  2  0
 19 29  1  1
 30 20  2  0
 31 12  1  0
 31 14  1  0
 32 13  1  0
 32 21  1  0
M  END
$$$$
