
     RDKit          2D

  5  4  0  0  0  0  0  0  0  0999 V2000
   -1.8266    1.7972    0.0000 O   0  0  0  0  0  0  0  0  0  0  0  0
   -1.0013    1.7972    0.0000 S   0  0  0  0  0  0  0  0  0  0  0  0
   -0.1772    1.7972    0.0000 O   0  0  0  0  0  0  0  0  0  0  0  0
   -1.0013    0.9719    0.0000 O   0  0  0  0  0  0  0  0  0  0  0  0
   -1.0013    2.6219    0.0000 O   0  0  0  0  0  0  0  0  0  0  0  0
  1  2  1  0
  2  3  1  0
  2  4  2  0
  2  5  2  0
M  CHG  2   1  -1   3  -1
M  END
$$$$
