      
     RDKit          2D

 30 34  0  0  0  0  0  0  0  0999 V2000
   -0.0203    8.0169    0.0000 C   0  0  0  0  0  0  0  0  0  0  0  0
   -0.9112    1.3976    0.0000 C   0  0  0  0  0  0  0  0  0  0  0  0
   -0.3065    0.8365    0.0000 C   0  0  0  0  0  0  0  0  0  0  0  0
    0.9962    0.4346    0.0000 C   0  0  0  0  0  0  0  0  0  0  0  0
    1.8212    0.4346    0.0000 C   0  0  0  0  0  0  0  0  0  0  0  0
    3.5451    2.2019    0.0000 C   0  0  0  0  0  0  0  0  0  0  0  0
    2.7568    2.4451    0.0000 C   0  0  0  0  0  0  0  0  0  0  0  0
    2.1232    3.4794    0.0000 C   0  0  0  0  0  0  0  0  0  0  0  0
    0.6942    3.4794    0.0000 C   0  0  0  0  0  0  0  0  0  0  0  0
   -0.7277    2.2019    0.0000 C   0  0  0  0  0  0  0  0  0  0  0  0
    2.1232    4.3044    0.0000 C   0  0  0  0  0  0  0  0  0  0  0  0
    0.6942    4.3044    0.0000 C   0  0  0  0  0  0  0  0  0  0  0  0
    0.6942    6.7794    0.0000 C   0  0  0  0  0  0  0  0  0  0  0  0
    3.1239    0.8365    0.0000 C   0  0  0  0  0  0  0  0  0  0  0  0
   -0.7347    6.7794    0.0000 C   0  0  0  0  0  0  0  0  0  0  0  0
   -0.0203    5.5419    0.0000 C   0  0  0  0  0  0  0  0  0  0  0  0
    1.4087    5.5419    0.0000 C   0  0  0  0  0  0  0  0  0  0  0  0
   -0.0203    7.1919    0.0000 C   0  0  0  0  0  0  0  0  0  0  0  0
    0.6942    5.9544    0.0000 C   0  0  0  0  0  0  0  0  0  0  0  0
    1.4087    3.0669    0.0000 C   0  0  0  0  0  0  0  0  0  0  0  0
    0.4818    1.0794    0.0000 C   0  0  0  0  0  0  0  0  0  0  0  0
    2.3356    1.0794    0.0000 C   0  0  0  0  0  0  0  0  0  0  0  0
    3.7286    1.3976    0.0000 C   0  0  0  0  0  0  0  0  0  0  0  0
    2.1519    1.8840    0.0000 C   0  0  0  0  0  0  0  0  0  0  0  0
    1.4087    2.2418    0.0000 C   0  0  0  0  0  0  0  0  0  0  0  0
    0.6654    1.8840    0.0000 C   0  0  0  0  0  0  0  0  0  0  0  0
    4.5170    1.1544    0.0000 Cl  0  0  0  0  0  0  0  0  0  0  0  0
   -0.7347    5.9544    0.0000 N   0  0  0  0  0  0  0  0  0  0  0  0
    0.0606    2.4451    0.0000 N   0  0  0  0  0  0  0  0  0  0  0  0
    1.4087    4.7169    0.0000 N   0  0  0  0  0  0  0  0  0  0  0  0
  3  2  2  0
  5  4  1  0
  7  6  1  0
 10  2  1  0
 11  8  1  0
 12  9  1  0
 18  1  1  0
 18 13  2  0
 18 15  1  0
 19 13  1  0
 19 16  2  0
 19 17  1  0
 20  8  1  0
 20  9  1  0
 21  3  1  0
 21  4  1  0
 22  5  1  0
 22 14  2  0
 23  6  2  0
 23 14  1  0
 24  7  2  0
 24 22  1  0
 25 24  1  0
 26 21  2  0
 26 25  1  0
 27 23  1  0
 28 15  2  0
 28 16  1  0
 29 10  2  0
 29 26  1  0
 30 11  1  0
 30 12  1  0
 30 17  1  0
 25 20  2  0
M  END
$$$$
