
     RDKit          2D

 41 45  0  0  0  0  0  0  0  0999 V2000
    4.1182    2.3871    0.0000 O   0  0  0  0  0  0  0  0  0  0  0  0
    4.9183    2.5997    0.0000 S   0  0  0  0  0  0  0  0  0  0  0  0
    4.3342    3.1863    0.0000 O   0  0  0  0  0  0  0  0  0  0  0  0
    0.6387   -2.3613    0.0000 C   0  0  0  0  0  0  0  0  0  0  0  0
    1.3552   -1.9480    0.0000 C   0  0  0  0  0  0  0  0  0  0  0  0
    1.3524   -1.1173    0.0000 C   0  0  0  0  0  0  0  0  0  0  0  0
    0.6369   -0.7083    0.0000 C   0  0  0  0  0  0  0  0  0  0  0  0
   -0.0760   -1.9484    0.0000 C   0  0  0  0  0  0  0  0  0  0  0  0
   -0.0764   -1.1209    0.0000 C   0  0  0  0  0  0  0  0  0  0  0  0
   -0.7891   -0.7100    0.0000 C   0  0  0  0  0  0  0  0  0  0  0  0
   -1.5062   -1.1216    0.0000 C   0  0  0  0  0  0  0  0  0  0  0  0
   -1.5058   -1.9492    0.0000 N   0  0  0  0  0  0  0  0  0  0  0  0
   -0.7883   -2.3648    0.0000 C   0  0  0  0  0  0  0  0  0  0  0  0
   -2.2205   -2.3613    0.0000 C   0  0  0  0  0  0  0  0  0  0  0  0
   -2.9347   -1.9484    0.0000 C   0  0  0  0  0  0  0  0  0  0  0  0
   -2.2209   -3.1863    0.0000 O   0  0  0  0  0  0  0  0  0  0  0  0
   -2.9303   -1.1246    0.0000 C   0  0  0  0  0  0  0  0  0  0  0  0
   -3.6437   -0.7119    0.0000 C   0  0  0  0  0  0  0  0  0  0  0  0
   -3.6432   -2.3624    0.0000 C   0  0  0  0  0  0  0  0  0  0  0  0
    0.6348    0.1167    0.0000 Cl  0  0  0  0  0  0  0  0  0  0  0  0
    2.0704   -2.3593    0.0000 Cl  0  0  0  0  0  0  0  0  0  0  0  0
    2.0653   -0.7021    0.0000 C   0  0  0  0  0  0  0  0  0  0  0  0
    2.7813   -1.1121    0.0000 N   0  0  0  0  0  0  0  0  0  0  0  0
    2.0622    0.1226    0.0000 O   0  0  0  0  0  0  0  0  0  0  0  0
    3.4942   -0.6968    0.0000 C   0  0  0  0  0  0  0  0  0  0  0  0
    3.4967    0.1292    0.0000 C   0  0  0  0  0  0  0  0  0  0  0  0
    4.2102   -1.1067    0.0000 C   0  0  0  0  0  0  0  0  0  0  0  0
    4.2133   -1.9317    0.0000 O   0  0  0  0  0  0  0  0  0  0  0  0
    4.9231   -0.6915    0.0000 O   0  0  0  0  0  0  0  0  0  0  0  0
    4.2124    0.5396    0.0000 C   0  0  0  0  0  0  0  0  0  0  0  0
    4.9224    0.1207    0.0000 C   0  0  0  0  0  0  0  0  0  0  0  0
    5.6377    0.5304    0.0000 C   0  0  0  0  0  0  0  0  0  0  0  0
    5.6407    1.3563    0.0000 C   0  0  0  0  0  0  0  0  0  0  0  0
    4.9223    1.7708    0.0000 C   0  0  0  0  0  0  0  0  0  0  0  0
    4.2100    1.3586    0.0000 C   0  0  0  0  0  0  0  0  0  0  0  0
   -4.3572   -1.9534    0.0000 C   0  0  0  0  0  0  0  0  0  0  0  0
   -4.3627   -1.1211    0.0000 C   0  0  0  0  0  0  0  0  0  0  0  0
   -5.1559   -0.8693    0.0000 C   0  0  0  0  0  0  0  0  0  0  0  0
   -5.6407   -1.5457    0.0000 C   0  0  0  0  0  0  0  0  0  0  0  0
   -5.1469   -2.2157    0.0000 O   0  0  0  0  0  0  0  0  0  0  0  0
    5.6362    3.0086    0.0000 C   0  0  0  0  0  0  0  0  0  0  0  0
  2  1  2  0
  3  2  2  0
  8  4  2  0
  4  5  1  0
  5  6  2  0
  6  7  1  0
  7  9  2  0
  8  9  1  0
  8 13  1  0
  9 10  1  0
 10 11  1  0
 11 12  1  0
 12 13  1  0
 12 14  1  0
 14 15  1  0
 14 16  2  0
 15 17  2  0
 17 18  1  0
 18 37  2  0
 36 19  2  0
 19 15  1  0
  7 20  1  0
  5 21  1  0
  6 22  1  0
 22 23  1  0
 22 24  2  0
 23 25  1  0
 25 26  1  1
 25 27  1  0
 27 28  1  0
 27 29  2  0
 26 30  1  0
 30 31  2  0
 31 32  1  0
 32 33  2  0
 33 34  1  0
 34 35  2  0
 35 30  1  0
 36 37  1  0
 37 38  1  0
 38 39  2  0
 39 40  1  0
 40 36  1  0
 34  2  1  0
  2 41  1  0
M  END
$$$$
