HMDB02269.mol
     RDKit          2D

 27 28  0  0  0  0  0  0  0  0999 V2000
   -4.2907    0.6195    0.0000 C   0  0  0  0  0  0  0  0  0  0  0  0
   -4.2907   -0.2065    0.0000 C   0  0  0  0  0  0  0  0  0  0  0  0
   -3.5766   -0.6195    0.0000 C   0  0  0  0  0  0  0  0  0  0  0  0
   -2.8624   -0.2065    0.0000 C   0  0  0  0  0  0  0  0  0  0  0  0
   -2.8624    0.6195    0.0000 C   0  0  0  0  0  0  0  0  0  0  0  0
   -3.5766    1.0325    0.0000 C   0  0  0  0  0  0  0  0  0  0  0  0
   -5.0049   -0.6195    0.0000 O   0  0  0  0  0  0  0  0  0  0  0  0
   -3.5766   -1.4455    0.0000 O   0  0  0  0  0  0  0  0  0  0  0  0
   -2.1453    1.0325    0.0000 C   0  0  0  0  0  0  0  0  0  0  0  0
   -1.4312    0.6195    0.0000 C   0  0  0  0  0  0  0  0  0  0  0  0
   -0.7142    1.0325    0.0000 C   0  0  0  0  0  0  0  0  0  0  0  0
    0.0000    0.6195    0.0000 C   0  0  0  0  0  0  0  0  0  0  0  0
   -0.7142    1.8585    0.0000 O   0  0  0  0  0  0  0  0  0  0  0  0
    0.7170    1.0325    0.0000 C   0  0  0  0  0  0  0  0  0  0  0  0
    1.4312    0.6195    0.0000 C   0  0  0  0  0  0  0  0  0  0  0  0
    0.7170    1.8585    0.0000 O   0  0  0  0  0  0  0  0  0  0  0  0
    2.1482    1.0325    0.0000 C   0  0  0  0  0  0  0  0  0  0  0  0
    2.8652    0.6195    0.0000 C   0  0  0  0  0  0  0  0  0  0  0  0
    2.8652   -0.2065    0.0000 C   0  0  0  0  0  0  0  0  0  0  0  0
    3.5794   -0.6195    0.0000 C   0  0  0  0  0  0  0  0  0  0  0  0
    4.2907   -0.2065    0.0000 C   0  0  0  0  0  0  0  0  0  0  0  0
    4.2907    0.6195    0.0000 C   0  0  0  0  0  0  0  0  0  0  0  0
    3.5794    1.0325    0.0000 C   0  0  0  0  0  0  0  0  0  0  0  0
    3.5794   -1.4455    0.0000 O   0  0  0  0  0  0  0  0  0  0  0  0
    5.0078   -0.6195    0.0000 O   0  0  0  0  0  0  0  0  0  0  0  0
   -4.2907   -1.8585    0.0000 C   0  0  0  0  0  0  0  0  0  0  0  0
    4.2936   -1.8585    0.0000 C   0  0  0  0  0  0  0  0  0  0  0  0
  1  2  2  0
  2  3  1  0
  3  4  2  0
  4  5  1  0
  5  6  2  0
  1  6  1  0
  2  7  1  0
  3  8  1  0
  5  9  1  0
  9 10  2  0
 10 11  1  0
 11 12  1  0
 11 13  2  0
 12 14  1  0
 14 15  1  0
 14 16  2  0
 15 17  2  0
 17 18  1  0
 18 19  2  0
 19 20  1  0
 20 21  2  0
 21 22  1  0
 22 23  2  0
 18 23  1  0
 20 24  1  0
 21 25  1  0
  8 26  1  0
 24 27  1  0
M  END
$$$$
