
     RDKit          2D

 49 54  0  0  0  0  0  0  0  0999 V2000
   -1.4289    0.5904    0.0000 C   0  0  0  0  0  0  0  0  0  0  0  0
   -2.1434    0.1779    0.0000 C   0  0  0  0  0  0  0  0  0  0  0  0
   -2.1434   -0.6470    0.0000 C   0  0  0  0  0  0  0  0  0  0  0  0
   -1.4289   -1.0595    0.0000 C   0  0  0  0  0  0  0  0  0  0  0  0
   -0.7144   -0.6470    0.0000 C   0  0  0  0  0  0  0  0  0  0  0  0
   -0.7144    0.1779    0.0000 C   0  0  0  0  0  0  0  0  0  0  0  0
    0.0000    0.5904    0.0000 C   0  0  0  0  0  0  0  0  0  0  0  0
    0.7145    0.1779    0.0000 C   0  0  0  0  0  0  0  0  0  0  0  0
    0.7145   -0.6470    0.0000 C   0  0  0  0  0  0  0  0  0  0  0  0
    1.4289   -1.0595    0.0000 C   0  0  0  0  0  0  0  0  0  0  0  0
    2.1434   -0.6470    0.0000 C   0  0  0  0  0  0  0  0  0  0  0  0
    2.1434    0.1780    0.0000 C   0  0  0  0  0  0  0  0  0  0  0  0
    1.4290    0.5905    0.0000 C   0  0  0  0  0  0  0  0  0  0  0  0
   -2.8578    0.5904    0.0000 N   0  0  0  0  0  0  0  0  0  0  0  0
    2.8579    0.5904    0.0000 N   0  0  0  0  0  0  0  0  0  0  0  0
   -2.9441    1.4109    0.0000 N   0  0  0  0  0  0  0  0  0  0  0  0
   -3.7510    1.5824    0.0000 C   0  0  0  0  0  0  0  0  0  0  0  0
   -4.1635    0.8680    0.0000 C   0  0  0  0  0  0  0  0  0  0  0  0
   -3.6116    0.2549    0.0000 N   0  0  0  0  0  0  0  0  0  0  0  0
    3.6116    0.2549    0.0000 N   0  0  0  0  0  0  0  0  0  0  0  0
    4.1636    0.8680    0.0000 C   0  0  0  0  0  0  0  0  0  0  0  0
    3.7511    1.5824    0.0000 C   0  0  0  0  0  0  0  0  0  0  0  0
    2.9442    1.4109    0.0000 N   0  0  0  0  0  0  0  0  0  0  0  0
    4.1636    2.2969    0.0000 C   0  0  0  0  0  0  0  0  0  0  0  0
    4.9886    2.2969    0.0000 C   0  0  0  0  0  0  0  0  0  0  0  0
    5.4011    1.5825    0.0000 C   0  0  0  0  0  0  0  0  0  0  0  0
    4.9886    0.8680    0.0000 C   0  0  0  0  0  0  0  0  0  0  0  0
   -4.1635    2.2969    0.0000 C   0  0  0  0  0  0  0  0  0  0  0  0
   -4.9885    2.2970    0.0000 C   0  0  0  0  0  0  0  0  0  0  0  0
   -5.4011    1.5825    0.0000 C   0  0  0  0  0  0  0  0  0  0  0  0
   -4.9885    0.8680    0.0000 C   0  0  0  0  0  0  0  0  0  0  0  0
    1.4290    1.4155    0.0000 O   0  0  0  0  0  0  0  0  0  0  0  0
   -1.4289    1.4154    0.0000 O   0  0  0  0  0  0  0  0  0  0  0  0
    1.4289   -1.8845    0.0000 C   0  0  0  0  0  0  0  0  0  0  0  0
   -1.4289   -1.8845    0.0000 C   0  0  0  0  0  0  0  0  0  0  0  0
   -0.7144   -2.2970    0.0000 C   0  0  0  0  0  0  0  0  0  0  0  0
   -0.7144   -1.4720    0.0000 C   0  0  0  0  0  0  0  0  0  0  0  0
    2.1434   -2.2970    0.0000 C   0  0  0  0  0  0  0  0  0  0  0  0
    0.7145   -2.2970    0.0000 C   0  0  0  0  0  0  0  0  0  0  0  0
    0.7145   -1.4720    0.0000 C   0  0  0  0  0  0  0  0  0  0  0  0
    2.8579   -1.8845    0.0000 C   0  0  0  0  0  0  0  0  0  0  0  0
    3.5724   -2.2970    0.0000 C   0  0  0  0  0  0  0  0  0  0  0  0
    2.8579   -1.0595    0.0000 C   0  0  0  0  0  0  0  0  0  0  0  0
    3.5724   -1.4720    0.0000 C   0  0  0  0  0  0  0  0  0  0  0  0
   -2.1433   -2.2970    0.0000 C   0  0  0  0  0  0  0  0  0  0  0  0
   -2.8578   -1.8845    0.0000 C   0  0  0  0  0  0  0  0  0  0  0  0
   -3.5723   -2.2970    0.0000 C   0  0  0  0  0  0  0  0  0  0  0  0
   -2.8578   -1.0595    0.0000 C   0  0  0  0  0  0  0  0  0  0  0  0
   -3.5723   -1.4720    0.0000 C   0  0  0  0  0  0  0  0  0  0  0  0
  1  2  2  0
  1  6  1  0
  2  3  1  0
  3  4  2  0
  4  5  1  0
  5  6  2  0
  6  7  1  0
  7  8  1  0
  8  9  2  0
  8 13  1  0
  9 10  1  0
 10 11  2  0
 11 12  1  0
 12 13  2  0
  2 14  1  0
 12 15  1  0
 14 16  1  0
 14 19  1  0
 16 17  2  0
 18 19  2  0
 15 20  1  0
 15 23  1  0
 20 21  2  0
 22 23  2  0
 27 21  1  0
 21 22  1  0
 22 24  1  0
 24 25  2  0
 25 26  1  0
 26 27  2  0
 17 28  1  0
 18 17  1  0
 31 18  1  0
 28 29  2  0
 29 30  1  0
 30 31  2  0
 13 32  1  0
  1 33  1  0
 10 34  1  0
  4 35  1  0
 35 36  1  0
 35 37  1  0
 34 38  1  0
 34 39  1  0
 34 40  1  0
 38 41  1  0
 41 42  1  0
 41 43  1  0
 41 44  1  0
 35 45  1  0
 45 46  1  0
 46 47  1  0
 46 48  1  0
 46 49  1  0
M  END
$$$$
