
     RDKit          2D

 13 12  0  0  0  0  0  0  0  0999 V2000
    6.2113    0.3235    0.0000 C   0  0  0  0  0  0  0  0  0  0  0  0
    5.9093   -0.8034    0.0000 C   0  0  0  0  0  0  0  0  0  0  0  0
    6.2113    1.1485    0.0000 C   0  0  0  0  0  0  0  0  0  0  0  0
    6.7343   -0.8034    0.0000 C   0  0  0  0  0  0  0  0  0  0  0  0
    4.7824   -0.5015    0.0000 C   0  0  0  0  0  0  0  0  0  0  0  0
    5.4968   -0.0890    0.0000 C   0  0  0  0  0  0  0  0  0  0  0  0
    5.4968    1.5610    0.0000 O   0  0  0  0  0  0  0  0  0  0  0  0
    6.9258    1.5610    0.0000 O   0  0  0  0  0  0  0  0  0  0  0  0
    7.1468   -0.0890    0.0000 O   0  0  0  0  0  0  0  0  0  0  0  0
    7.1468   -1.5179    0.0000 O   0  0  0  0  0  0  0  0  0  0  0  0
    4.7824   -1.3265    0.0000 O   0  0  0  0  0  0  0  0  0  0  0  0
    4.0679   -0.0890    0.0000 O   0  0  0  0  0  0  0  0  0  0  0  0
    5.0843    0.6255    0.0000 O   0  0  0  0  0  0  0  0  0  0  0  0
  3  1  1  0
  4  2  1  0
  6  1  1  0
  6  2  1  0
  6  5  1  0
  7  3  2  0
  8  3  1  0
  9  4  2  0
 10  4  1  0
 11  5  2  0
 12  5  1  0
 13  6  1  0
M  CHG  3   8  -1  10  -1  12  -1
M  END
$$$$
