
     RDKit          2D

 32 35  0  0  0  0  0  0  0  0999 V2000
    6.7618   -0.8250    0.0000 C   0  0  0  0  0  0  0  0  0  0  0  0
    4.2868   -3.3000    0.0000 C   0  0  0  0  0  0  0  0  0  0  0  0
    6.1632    5.0728    0.0000 C   0  0  0  0  0  0  0  0  0  0  0  0
    6.3493   -0.1105    0.0000 C   0  0  0  0  0  0  0  0  0  0  0  0
    6.3493   -1.5395    0.0000 C   0  0  0  0  0  0  0  0  0  0  0  0
    5.0013   -2.8875    0.0000 C   0  0  0  0  0  0  0  0  0  0  0  0
    3.5724   -2.8875    0.0000 C   0  0  0  0  0  0  0  0  0  0  0  0
    5.3387    5.0440    0.0000 C   0  0  0  0  0  0  0  0  0  0  0  0
    6.6004    4.3732    0.0000 C   0  0  0  0  0  0  0  0  0  0  0  0
    5.5243   -0.1105    0.0000 C   0  0  0  0  0  0  0  0  0  0  0  0
    5.5243   -1.5395    0.0000 C   0  0  0  0  0  0  0  0  0  0  0  0
    5.0013   -2.0625    0.0000 C   0  0  0  0  0  0  0  0  0  0  0  0
    3.5724   -2.0625    0.0000 C   0  0  0  0  0  0  0  0  0  0  0  0
    4.2868    0.0000    0.0000 C   0  0  0  0  0  0  0  0  0  0  0  0
    4.2868    2.4750    0.0000 C   0  0  0  0  0  0  0  0  0  0  0  0
    5.7158    2.4750    0.0000 C   0  0  0  0  0  0  0  0  0  0  0  0
    4.9514    4.3156    0.0000 C   0  0  0  0  0  0  0  0  0  0  0  0
    6.2131    3.6447    0.0000 C   0  0  0  0  0  0  0  0  0  0  0  0
    5.0013    0.4125    0.0000 C   0  0  0  0  0  0  0  0  0  0  0  0
    4.2868    1.6500    0.0000 C   0  0  0  0  0  0  0  0  0  0  0  0
    5.7158    1.6500    0.0000 C   0  0  0  0  0  0  0  0  0  0  0  0
    3.4618   -0.8250    0.0000 C   0  0  0  0  0  0  0  0  0  0  0  0
    5.1118   -0.8250    0.0000 C   0  0  0  0  0  0  0  0  0  0  0  0
    4.2868   -1.6500    0.0000 C   0  0  0  0  0  0  0  0  0  0  0  0
    4.6140    3.6159    0.0000 C   0  0  0  0  0  0  0  0  0  0  0  0
    4.2868   -0.8250    0.0000 C   0  0  0  0  0  0  0  0  0  0  0  0
    5.0013    2.8875    0.0000 C   0  0  0  0  0  0  0  0  0  0  0  0
    2.6368   -0.8250    0.0000 N   0  0  0  0  0  0  0  0  0  0  0  0
    3.7895    3.6447    0.0000 N   0  0  0  0  0  0  0  0  0  0  0  0
    5.0013    1.2375    0.0000 N   0  0  0  0  0  0  0  0  0  0  0  0
    5.3886    3.6159    0.0000 N   0  0  0  0  0  0  0  0  0  0  0  0
    4.5564    4.4389    0.0000 O   0  0  0  0  0  0  0  0  0  0  0  0
  4  1  2  0
  5  1  1  0
  6  2  2  0
  7  2  1  0
  8  3  1  0
  9  3  1  0
 10  4  1  0
 11  5  2  0
 12  6  1  0
 13  7  2  0
 17  8  1  0
 18  9  1  0
 19 14  1  0
 20 15  1  0
 21 16  1  0
 23 10  2  0
 23 11  1  0
 24 12  2  0
 24 13  1  0
 26 14  1  0
 26 22  1  0
 26 23  1  0
 26 24  1  0
 27 15  1  0
 27 16  1  0
 27 25  1  0
 28 22  3  0
 29 25  2  3
 30 19  1  0
 30 20  1  0
 30 21  1  0
 31 17  1  0
 31 18  1  0
 31 27  1  0
 32 25  1  0
M  END
$$$$
