
     RDKit          2D

 21 21  0  0  1  0  0  0  0  0999 V2000
    0.3829   -0.0000    0.0000 C   0  0  0  0  0  0  0  0  0  0  0  0
    0.7954    0.7145    0.0000 C   0  0  0  0  0  0  0  0  0  0  0  0
    0.3829    1.4289    0.0000 C   0  0  0  0  0  0  0  0  0  0  0  0
    0.7954    2.1434    0.0000 C   0  0  0  0  0  0  0  0  0  0  0  0
    1.6204    2.1434    0.0000 C   0  0  0  0  0  0  0  0  0  0  0  0
    2.0329    1.4289    0.0000 C   0  0  0  0  0  0  0  0  0  0  0  0
    1.6204    0.7145    0.0000 O   0  0  0  0  0  0  0  0  0  0  0  0
    2.8579    1.4289    0.0000 O   0  0  0  0  0  0  0  0  0  0  0  0
    3.2704    0.7145    0.0000 C   0  0  0  0  0  0  0  0  0  0  0  0
    2.8579    0.0000    0.0000 C   0  0  0  0  0  0  0  0  0  0  0  0
    2.0329    0.0000    0.0000 O   0  0  0  0  0  0  0  0  0  0  0  0
    4.0954    0.7145    0.0000 C   0  0  0  0  0  0  0  0  0  0  0  0
    4.5079    0.0000    0.0000 C   0  0  0  0  0  0  0  0  0  0  0  0
    5.3329    0.0000    0.0000 C   0  0  0  0  0  0  0  0  0  0  0  0
    5.7454   -0.7145    0.0000 O   0  0  0  0  0  0  0  0  0  0  0  0
    4.0954   -0.7145    0.0000 O   0  0  0  0  0  0  0  0  0  0  0  0
    4.5079    1.4289    0.0000 O   0  0  0  0  0  0  0  0  0  0  0  0
    2.0329    2.8579    0.0000 O   0  0  0  0  0  0  0  0  0  0  0  0
    0.3829    2.8579    0.0000 O   0  0  0  0  0  0  0  0  0  0  0  0
   -0.4421    1.4289    0.0000 O   0  0  0  0  0  0  0  0  0  0  0  0
    0.7954   -0.7145    0.0000 O   0  0  0  0  0  0  0  0  0  0  0  0
  2  1  1  6
  2  3  1  0
  3  4  1  0
  4  5  1  0
  5  6  1  0
  6  7  1  0
  2  7  1  0
  6  8  1  6
  9  8  1  0
  9 10  1  1
 10 11  1  0
  9 12  1  0
 12 13  1  0
 13 14  1  0
 14 15  2  0
 13 16  1  6
 12 17  1  6
  5 18  1  1
  4 19  1  6
  3 20  1  6
  1 21  1  0
M  END
$$$$
