
     RDKit          2D

 20 21  0  0  1  0  0  0  0  0999 V2000
   -4.8946    4.3527    0.0000 B   0  0  0  0  0  0  0  0  0  0  0  0
   -4.8946    3.5277    0.0000 C   0  0  0  0  0  0  0  0  0  0  0  0
   -5.6091    3.1152    0.0000 C   0  0  0  0  0  0  0  0  0  0  0  0
   -6.3235    3.5277    0.0000 C   0  0  0  0  0  0  0  0  0  0  0  0
   -6.3235    4.3527    0.0000 C   0  0  0  0  0  0  0  0  0  0  0  0
   -5.6091    4.7652    0.0000 O   0  0  0  0  0  0  0  0  0  0  0  0
   -7.0380    4.7652    0.0000 C   0  0  0  0  0  0  0  0  0  0  0  0
   -7.0380    5.5902    0.0000 C   0  0  0  0  0  0  0  0  0  0  0  0
   -7.7525    6.0027    0.0000 O   0  0  0  0  0  0  0  0  0  0  0  0
   -6.3235    6.0027    0.0000 O   0  0  0  0  0  0  0  0  0  0  0  0
   -4.1801    3.1152    0.0000 N   0  0  0  0  0  0  0  0  0  0  0  0
   -4.1801    2.2902    0.0000 C   0  0  0  0  0  0  0  0  0  0  0  0
   -4.8946    1.8777    0.0000 O   0  0  0  0  0  0  0  0  0  0  0  0
   -3.4656    1.8777    0.0000 C   0  0  0  0  0  0  0  0  0  0  0  0
   -3.4656    1.0527    0.0000 C   0  0  0  0  0  0  0  0  0  0  0  0
   -2.7982    0.5678    0.0000 C   0  0  0  0  0  0  0  0  0  0  0  0
   -3.0531   -0.2169    0.0000 C   0  0  0  0  0  0  0  0  0  0  0  0
   -3.8781   -0.2169    0.0000 C   0  0  0  0  0  0  0  0  0  0  0  0
   -4.1331    0.5678    0.0000 S   0  0  0  0  0  0  0  0  0  0  0  0
   -4.1801    4.7652    0.0000 O   0  0  0  0  0  0  0  0  0  0  0  0
  1  2  1  0
  2  3  1  0
  3  4  1  0
  4  5  1  0
  5  6  1  0
  1  6  1  0
  5  7  1  1
  7  8  1  0
  8  9  2  0
  8 10  1  0
  2 11  1  1
 11 12  1  0
 12 13  2  0
 12 14  1  0
 14 15  1  0
 15 16  2  0
 16 17  1  0
 17 18  2  0
 18 19  1  0
 15 19  1  0
  1 20  1  0
M  END
$$$$
