
     RDKit          2D

 35 35  0  0  0  0  0  0  0  0999 V2000
   11.4315   -1.6500    0.0000 C   0  0  0  0  0  0  0  0  0  0  0  0
    7.1447   -1.6500    0.0000 C   0  0  0  0  0  0  0  0  0  0  0  0
   12.1460   -0.4125    0.0000 C   0  0  0  0  0  0  0  0  0  0  0  0
    6.4302   -0.4125    0.0000 C   0  0  0  0  0  0  0  0  0  0  0  0
    9.2881   -4.5375    0.0000 C   0  0  0  0  0  0  0  0  0  0  0  0
   10.7171   -4.5375    0.0000 C   0  0  0  0  0  0  0  0  0  0  0  0
   13.5749   -0.4125    0.0000 C   0  0  0  0  0  0  0  0  0  0  0  0
    5.0013   -0.4125    0.0000 C   0  0  0  0  0  0  0  0  0  0  0  0
   10.0026   -4.1250    0.0000 C   0  0  0  0  0  0  0  0  0  0  0  0
   12.8605   -0.8250    0.0000 C   0  0  0  0  0  0  0  0  0  0  0  0
    5.7158   -0.8250    0.0000 C   0  0  0  0  0  0  0  0  0  0  0  0
   10.0026   -0.8250    0.0000 C   0  0  0  0  0  0  0  0  0  0  0  0
    8.5737   -0.8250    0.0000 C   0  0  0  0  0  0  0  0  0  0  0  0
    9.2881   -0.4125    0.0000 C   0  0  0  0  0  0  0  0  0  0  0  0
   10.0026   -1.6500    0.0000 C   0  0  0  0  0  0  0  0  0  0  0  0
    8.5737   -1.6500    0.0000 C   0  0  0  0  0  0  0  0  0  0  0  0
    9.2881   -2.0625    0.0000 C   0  0  0  0  0  0  0  0  0  0  0  0
   10.0026   -3.3000    0.0000 C   0  0  0  0  0  0  0  0  0  0  0  0
   10.7171   -0.4125    0.0000 C   0  0  0  0  0  0  0  0  0  0  0  0
    7.8592   -0.4125    0.0000 C   0  0  0  0  0  0  0  0  0  0  0  0
    9.2881    0.4125    0.0000 I   0  0  0  0  0  0  0  0  0  0  0  0
   10.7171   -2.0625    0.0000 I   0  0  0  0  0  0  0  0  0  0  0  0
    7.8592   -2.0625    0.0000 I   0  0  0  0  0  0  0  0  0  0  0  0
    9.2881   -2.8875    0.0000 N   0  0  0  0  0  0  0  0  0  0  0  0
   11.4315   -0.8250    0.0000 N   0  0  0  0  0  0  0  0  0  0  0  0
    7.1447   -0.8250    0.0000 N   0  0  0  0  0  0  0  0  0  0  0  0
    8.5737   -4.1250    0.0000 O   0  0  0  0  0  0  0  0  0  0  0  0
   11.4315   -4.1250    0.0000 O   0  0  0  0  0  0  0  0  0  0  0  0
   14.2894   -0.8250    0.0000 O   0  0  0  0  0  0  0  0  0  0  0  0
    4.2868   -0.8250    0.0000 O   0  0  0  0  0  0  0  0  0  0  0  0
   12.8605   -1.6500    0.0000 O   0  0  0  0  0  0  0  0  0  0  0  0
    5.7158   -1.6500    0.0000 O   0  0  0  0  0  0  0  0  0  0  0  0
   10.7171   -2.8875    0.0000 O   0  0  0  0  0  0  0  0  0  0  0  0
   10.7171    0.4125    0.0000 O   0  0  0  0  0  0  0  0  0  0  0  0
    7.8592    0.4125    0.0000 O   0  0  0  0  0  0  0  0  0  0  0  0
  9  5  1  0
  9  6  1  0
 10  3  1  0
 10  7  1  0
 11  4  1  0
 11  8  1  0
 14 12  2  0
 14 13  1  0
 15 12  1  0
 16 13  2  0
 17 15  2  0
 17 16  1  0
 18  9  1  0
 19 12  1  0
 20 13  1  0
 21 14  1  0
 22 15  1  0
 23 16  1  0
 24 17  1  0
 24 18  2  3
 25  1  1  0
 25  3  1  0
 25 19  1  0
 26  2  1  0
 26  4  1  0
 26 20  1  0
 27  5  1  0
 28  6  1  0
 29  7  1  0
 30  8  1  0
 31 10  1  0
 32 11  1  0
 33 18  1  0
 34 19  2  0
 35 20  2  0
M  END
$$$$
