
     RDKit          2D

 27 29  0  0  1  0  0  0  0  0999 V2000
   -0.5189    1.0794    0.0000 C   0  0  0  0  0  0  0  0  0  0  0  0
   -0.4973    1.9041    0.0000 C   0  0  0  0  0  0  0  0  0  0  0  0
   -0.6477    2.7153    0.0000 C   0  0  0  0  0  0  0  0  0  0  0  0
    0.0773    3.1089    0.0000 N   0  0  0  0  0  0  0  0  0  0  0  0
    0.6758    2.5410    0.0000 C   0  0  0  0  0  0  0  0  0  0  0  0
    0.3206    1.7964    0.0000 S   0  0  0  0  0  0  0  0  0  0  0  0
    1.2437    3.1395    0.0000 C   0  0  0  0  0  0  0  0  0  0  0  0
    0.6452    3.7074    0.0000 C   0  0  0  0  0  0  0  0  0  0  0  0
    0.6236    4.5321    0.0000 O   0  0  0  0  0  0  0  0  0  0  0  0
    1.9581    2.7270    0.0000 N   0  0  0  0  0  0  0  0  0  0  0  0
    1.9581    1.9020    0.0000 C   0  0  0  0  0  0  0  0  0  0  0  0
    1.2437    1.4895    0.0000 O   0  0  0  0  0  0  0  0  0  0  0  0
    2.6726    1.4895    0.0000 C   0  0  0  0  0  0  0  0  0  0  0  0
    2.6726    0.6645    0.0000 C   0  0  0  0  0  0  0  0  0  0  0  0
    3.3400    0.1795    0.0000 C   0  0  0  0  0  0  0  0  0  0  0  0
    3.0851   -0.6051    0.0000 C   0  0  0  0  0  0  0  0  0  0  0  0
    2.2601   -0.6051    0.0000 S   0  0  0  0  0  0  0  0  0  0  0  0
    2.0052    0.1795    0.0000 C   0  0  0  0  0  0  0  0  0  0  0  0
    3.3871    1.9020    0.0000 C   0  0  0  0  0  0  0  0  0  0  0  0
    3.3871    2.7270    0.0000 O   0  0  0  0  0  0  0  0  0  0  0  0
    4.1015    1.4895    0.0000 O   0  0  0  0  0  0  0  0  0  0  0  0
    1.9356    3.5888    0.0000 O   0  0  0  0  0  0  0  0  0  0  0  0
    1.8924    4.4127    0.0000 C   0  0  0  0  0  0  0  0  0  0  0  0
   -1.3923    3.0704    0.0000 C   0  0  0  0  0  0  0  0  0  0  0  0
   -2.0722    2.6032    0.0000 O   0  0  0  0  0  0  0  0  0  0  0  0
   -1.4570    3.8929    0.0000 O   0  0  0  0  0  0  0  0  0  0  0  0
   -1.3198    1.8394    0.0000 C   0  0  0  0  0  0  0  0  0  0  0  0
  1  2  1  0
  2  3  1  0
  3  4  1  0
  5  4  1  0
  5  6  1  1
  2  6  1  0
  5  7  1  0
  7  8  1  0
  4  8  1  0
  8  9  2  0
  7 10  1  1
 10 11  1  0
 11 12  2  0
 11 13  1  0
 13 14  1  0
 14 15  1  0
 15 16  2  0
 16 17  1  0
 17 18  1  0
 14 18  2  0
 13 19  1  0
 19 20  2  0
 19 21  1  0
  7 22  1  0
 22 23  1  0
  3 24  1  6
 24 25  2  0
 24 26  1  0
  2 27  1  0
M  END
$$$$
