
     RDKit          2D

 40 44  0  0  0  0  0  0  0  0999 V2000
   -7.8592   -2.8875    0.0000 C   0  0  0  0  0  0  0  0  0  0  0  0
   -7.8592   -3.7125    0.0000 N   0  0  0  0  0  0  0  0  0  0  0  0
   -7.1447   -4.1250    0.0000 C   0  0  0  0  0  0  0  0  0  0  0  0
   -7.1447   -4.9500    0.0000 C   0  0  0  0  0  0  0  0  0  0  0  0
   -7.8592   -5.3625    0.0000 N   0  0  0  0  0  0  0  0  0  0  0  0
   -8.5737   -4.9500    0.0000 C   0  0  0  0  0  0  0  0  0  0  0  0
   -8.5737   -4.1250    0.0000 C   0  0  0  0  0  0  0  0  0  0  0  0
   -7.8592   -6.1875    0.0000 C   0  0  0  0  0  0  0  0  0  0  0  0
   -7.1447   -6.6000    0.0000 C   0  0  0  0  0  0  0  0  0  0  0  0
   -7.1447   -7.4250    0.0000 C   0  0  0  0  0  0  0  0  0  0  0  0
   -7.8592   -7.8375    0.0000 N   0  0  0  0  0  0  0  0  0  0  0  0
   -8.5737   -7.4250    0.0000 C   0  0  0  0  0  0  0  0  0  0  0  0
   -8.5737   -6.6000    0.0000 C   0  0  0  0  0  0  0  0  0  0  0  0
   -7.8592   -8.6625    0.0000 C   0  0  0  0  0  0  0  0  0  0  0  0
   -7.1447   -9.0750    0.0000 C   0  0  0  0  0  0  0  0  0  0  0  0
   -7.1447   -9.9000    0.0000 C   0  0  0  0  0  0  0  0  0  0  0  0
   -7.8592  -10.3125    0.0000 C   0  0  0  0  0  0  0  0  0  0  0  0
   -8.5737   -9.9000    0.0000 C   0  0  0  0  0  0  0  0  0  0  0  0
   -8.5737   -9.0750    0.0000 C   0  0  0  0  0  0  0  0  0  0  0  0
   -9.2881  -10.3125    0.0000 O   0  0  0  0  0  0  0  0  0  0  0  0
  -10.0026   -9.9000    0.0000 C   0  0  0  0  0  0  0  0  0  0  0  0
   -7.8592  -11.1375    0.0000 N   0  0  0  0  0  0  0  0  0  0  0  0
   -8.5737  -11.5500    0.0000 C   0  0  0  0  0  0  0  0  0  0  0  0
   -9.2881  -11.1375    0.0000 N   0  0  0  0  0  0  0  0  0  0  0  0
  -10.0026  -11.5500    0.0000 C   0  0  0  0  0  0  0  0  0  0  0  0
  -10.0026  -12.3750    0.0000 C   0  0  0  0  0  0  0  0  0  0  0  0
   -9.2881  -12.7875    0.0000 C   0  0  0  0  0  0  0  0  0  0  0  0
   -8.5737  -12.3750    0.0000 N   0  0  0  0  0  0  0  0  0  0  0  0
   -9.2881  -13.6125    0.0000 N   0  0  0  0  0  0  0  0  0  0  0  0
   -8.5737  -14.0250    0.0000 C   0  0  0  0  0  0  0  0  0  0  0  0
   -7.8592  -13.6125    0.0000 C   0  0  0  0  0  0  0  0  0  0  0  0
   -7.1447  -14.0250    0.0000 C   0  0  0  0  0  0  0  0  0  0  0  0
   -7.1447  -14.8500    0.0000 C   0  0  0  0  0  0  0  0  0  0  0  0
   -7.8592  -15.2625    0.0000 C   0  0  0  0  0  0  0  0  0  0  0  0
   -8.5737  -14.8500    0.0000 C   0  0  0  0  0  0  0  0  0  0  0  0
   -9.2881  -15.2625    0.0000 P   0  0  0  0  0  0  0  0  0  0  0  0
  -10.0026  -15.6750    0.0000 O   0  0  0  0  0  0  0  0  0  0  0  0
   -9.7006  -14.5480    0.0000 C   0  0  0  0  0  0  0  0  0  0  0  0
   -8.8756  -15.9770    0.0000 C   0  0  0  0  0  0  0  0  0  0  0  0
  -10.7171  -12.7875    0.0000 Cl  0  0  0  0  0  0  0  0  0  0  0  0
  1  2  1  0
  2  3  1  0
  3  4  1  0
  4  5  1  0
  5  6  1  0
  6  7  1  0
  2  7  1  0
  5  8  1  0
  8  9  1  0
  9 10  1  0
 10 11  1  0
 11 12  1  0
 12 13  1  0
  8 13  1  0
 11 14  1  0
 14 15  2  0
 15 16  1  0
 16 17  2  0
 17 18  1  0
 18 19  2  0
 14 19  1  0
 18 20  1  0
 20 21  1  0
 17 22  1  0
 22 23  1  0
 23 24  2  0
 24 25  1  0
 25 26  2  0
 26 27  1  0
 27 28  2  0
 23 28  1  0
 27 29  1  0
 29 30  1  0
 30 31  2  0
 31 32  1  0
 32 33  2  0
 33 34  1  0
 34 35  2  0
 30 35  1  0
 35 36  1  0
 36 37  2  0
 36 38  1  0
 36 39  1  0
 26 40  1  0
M  END
$$$$
