
     RDKit          2D

 71 70  0  0  1  0  0  0  0  0999 V2000
   22.3263   11.2401    0.0000 C   0  0  0  0  0  0  0  0  0  0  0  0
   22.3263   10.4151    0.0000 C   0  0  0  0  0  0  0  0  0  0  0  0
   21.6118   10.0026    0.0000 C   0  0  0  0  0  0  0  0  0  0  0  0
   21.6118    9.1776    0.0000 O   0  0  0  0  0  0  0  0  0  0  0  0
   20.8974   10.4151    0.0000 N   0  0  0  0  0  0  0  0  0  0  0  0
   20.1829   10.0026    0.0000 C   0  0  0  0  0  0  0  0  0  0  0  0
   19.4684   10.4151    0.0000 C   0  0  0  0  0  0  0  0  0  0  0  0
   18.7539   10.0026    0.0000 C   0  0  0  0  0  0  0  0  0  0  0  0
   18.0395   10.4151    0.0000 C   0  0  0  0  0  0  0  0  0  0  0  0
   17.3250   10.0026    0.0000 N   0  0  0  0  0  0  0  0  0  0  0  0
   16.6105   10.4151    0.0000 C   0  0  0  0  0  0  0  0  0  0  0  0
   15.8961   10.0026    0.0000 N   0  0  0  0  0  0  0  0  0  0  0  0
   16.6105   11.2401    0.0000 N   0  0  0  0  0  0  0  0  0  0  0  0
   20.1829    9.1776    0.0000 C   0  0  0  0  0  0  0  0  0  0  0  0
   19.4684    8.7651    0.0000 O   0  0  0  0  0  0  0  0  0  0  0  0
   20.8974    8.7651    0.0000 N   0  0  0  0  0  0  0  0  0  0  0  0
   23.0408   10.0026    0.0000 N   0  0  0  0  0  0  0  0  0  0  0  0
   23.7552   10.4151    0.0000 C   0  0  0  0  0  0  0  0  0  0  0  0
   23.7552   11.2401    0.0000 O   0  0  0  0  0  0  0  0  0  0  0  0
   24.4697   10.0026    0.0000 C   0  0  0  0  0  0  0  0  0  0  0  0
   24.4697    9.1776    0.0000 C   0  0  0  0  0  0  0  0  0  0  0  0
   23.7552    8.7651    0.0000 C   0  0  0  0  0  0  0  0  0  0  0  0
   23.7552    7.9401    0.0000 C   0  0  0  0  0  0  0  0  0  0  0  0
   23.0408    7.5276    0.0000 N   0  0  0  0  0  0  0  0  0  0  0  0
   23.0408    6.7026    0.0000 C   0  0  0  0  0  0  0  0  0  0  0  0
   23.7552    6.2901    0.0000 N   0  0  0  0  0  0  0  0  0  0  0  0
   22.3263    6.2901    0.0000 N   0  0  0  0  0  0  0  0  0  0  0  0
   25.1842   10.4151    0.0000 N   0  0  0  0  0  0  0  0  0  0  0  0
   25.8987   10.0026    0.0000 C   0  0  0  0  0  0  0  0  0  0  0  0
   25.8987    9.1776    0.0000 O   0  0  0  0  0  0  0  0  0  0  0  0
   26.6131   10.4151    0.0000 C   0  0  0  0  0  0  0  0  0  0  0  0
   26.6131   11.2401    0.0000 C   0  0  0  0  0  0  0  0  0  0  0  0
   27.3276   11.6526    0.0000 C   0  0  0  0  0  0  0  0  0  0  0  0
   27.3276   12.4776    0.0000 C   0  0  0  0  0  0  0  0  0  0  0  0
   28.0421   12.8901    0.0000 N   0  0  0  0  0  0  0  0  0  0  0  0
   28.0421   13.7151    0.0000 C   0  0  0  0  0  0  0  0  0  0  0  0
   27.3276   14.1276    0.0000 N   0  0  0  0  0  0  0  0  0  0  0  0
   28.7565   14.1276    0.0000 N   0  0  0  0  0  0  0  0  0  0  0  0
   27.3276   10.0026    0.0000 N   0  0  0  0  0  0  0  0  0  0  0  0
   28.0421   10.4151    0.0000 C   0  0  0  0  0  0  0  0  0  0  0  0
   28.0421   11.2401    0.0000 O   0  0  0  0  0  0  0  0  0  0  0  0
   28.7565   10.0026    0.0000 C   0  0  0  0  0  0  0  0  0  0  0  0
   28.7565    9.1776    0.0000 C   0  0  0  0  0  0  0  0  0  0  0  0
   28.0421    8.7651    0.0000 C   0  0  0  0  0  0  0  0  0  0  0  0
   28.0421    7.9401    0.0000 C   0  0  0  0  0  0  0  0  0  0  0  0
   27.3276    7.5276    0.0000 N   0  0  0  0  0  0  0  0  0  0  0  0
   27.3276    6.7026    0.0000 C   0  0  0  0  0  0  0  0  0  0  0  0
   28.0421    6.2901    0.0000 N   0  0  0  0  0  0  0  0  0  0  0  0
   26.6131    6.2901    0.0000 N   0  0  0  0  0  0  0  0  0  0  0  0
   29.4710   10.4151    0.0000 N   0  0  0  0  0  0  0  0  0  0  0  0
   30.1855   10.0026    0.0000 C   0  0  0  0  0  0  0  0  0  0  0  0
   30.1855    9.1776    0.0000 O   0  0  0  0  0  0  0  0  0  0  0  0
   30.8999   10.4151    0.0000 C   0  0  0  0  0  0  0  0  0  0  0  0
   30.8999   11.2401    0.0000 C   0  0  0  0  0  0  0  0  0  0  0  0
   31.6144   10.0026    0.0000 N   0  0  0  0  0  0  0  0  0  0  0  0
   32.3289   10.4151    0.0000 C   0  0  0  0  0  0  0  0  0  0  0  0
   32.3289   11.2401    0.0000 O   0  0  0  0  0  0  0  0  0  0  0  0
   33.0434   10.0026    0.0000 C   0  0  0  0  0  0  0  0  0  0  0  0
   33.7578   10.4151    0.0000 C   0  0  0  0  0  0  0  0  0  0  0  0
   34.4723   10.0026    0.0000 S   0  0  0  0  0  0  0  0  0  0  0  0
   35.1868   10.4151    0.0000 S   0  0  0  0  0  0  0  0  0  0  0  0
   35.9012   10.0026    0.0000 C   0  0  0  0  0  0  0  0  0  0  0  0
   36.6157   10.4151    0.0000 C   0  0  0  0  0  0  0  0  0  0  0  0
   37.3302   10.0026    0.0000 C   0  0  0  0  0  0  0  0  0  0  0  0
   38.0447   10.4151    0.0000 O   0  0  0  0  0  0  0  0  0  0  0  0
   37.3302    9.1776    0.0000 O   0  0  0  0  0  0  0  0  0  0  0  0
   36.6157   11.2401    0.0000 N   0  0  0  0  0  0  0  0  0  0  0  0
   33.0434    9.1776    0.0000 N   0  0  0  0  0  0  0  0  0  0  0  0
   33.7578    8.7651    0.0000 C   0  0  0  0  0  0  0  0  0  0  0  0
   34.4723    9.1776    0.0000 O   0  0  0  0  0  0  0  0  0  0  0  0
   33.7578    7.9401    0.0000 C   0  0  0  0  0  0  0  0  0  0  0  0
  2  1  1  1
  2  3  1  0
  3  4  2  0
  3  5  1  0
  6  5  1  0
  6  7  1  1
  7  8  1  0
  8  9  1  0
  9 10  1  0
 10 11  1  0
 11 12  2  3
 11 13  1  0
  6 14  1  0
 14 15  2  0
 14 16  1  0
  2 17  1  0
 17 18  1  0
 18 19  2  0
 18 20  1  0
 20 21  1  6
 21 22  1  0
 22 23  1  0
 23 24  1  0
 24 25  1  0
 25 26  2  3
 25 27  1  0
 20 28  1  0
 28 29  1  0
 29 30  2  0
 29 31  1  0
 31 32  1  1
 32 33  1  0
 33 34  1  0
 34 35  1  0
 35 36  1  0
 36 37  2  3
 36 38  1  0
 31 39  1  0
 39 40  1  0
 40 41  2  0
 40 42  1  0
 42 43  1  6
 43 44  1  0
 44 45  1  0
 45 46  1  0
 46 47  1  0
 47 48  2  3
 47 49  1  0
 42 50  1  0
 50 51  1  0
 51 52  2  0
 51 53  1  0
 53 54  1  1
 53 55  1  0
 55 56  1  0
 56 57  2  0
 56 58  1  0
 58 59  1  1
 59 60  1  0
 60 61  1  0
 61 62  1  0
 62 63  1  0
 63 64  1  0
 64 65  2  0
 64 66  1  0
 63 67  1  6
 58 68  1  0
 68 69  1  0
 69 70  2  0
 69 71  1  0
M  END
$$$$
