
     RDKit          2D

 28 31  0  0  0  0  0  0  0  0999 V2000
    3.3523    1.1104    0.0000 C   0  0  0  0  0  0  0  0  0  0  0  0
    3.3523    1.9354    0.0000 C   0  0  0  0  0  0  0  0  0  0  0  0
    0.6710    5.9420    0.0000 C   0  0  0  0  0  0  0  0  0  0  0  0
    2.6378    0.6979    0.0000 C   0  0  0  0  0  0  0  0  0  0  0  0
    2.6378    2.3479    0.0000 C   0  0  0  0  0  0  0  0  0  0  0  0
    0.4161    6.7266    0.0000 C   0  0  0  0  0  0  0  0  0  0  0  0
    1.2652    8.7374    0.0000 C   0  0  0  0  0  0  0  0  0  0  0  0
   -0.0938    8.2958    0.0000 C   0  0  0  0  0  0  0  0  0  0  0  0
    1.0102    9.5220    0.0000 C   0  0  0  0  0  0  0  0  0  0  0  0
   -0.3488    9.0804    0.0000 C   0  0  0  0  0  0  0  0  0  0  0  0
    1.4358    3.5881    0.0000 C   0  0  0  0  0  0  0  0  0  0  0  0
    0.0768    3.1465    0.0000 C   0  0  0  0  0  0  0  0  0  0  0  0
    0.1190    5.3289    0.0000 C   0  0  0  0  0  0  0  0  0  0  0  0
    1.1809    4.3727    0.0000 C   0  0  0  0  0  0  0  0  0  0  0  0
   -0.1781    3.9312    0.0000 C   0  0  0  0  0  0  0  0  0  0  0  0
    0.7132    8.1243    0.0000 C   0  0  0  0  0  0  0  0  0  0  0  0
    0.2033    9.6935    0.0000 C   0  0  0  0  0  0  0  0  0  0  0  0
    0.8838    2.9750    0.0000 C   0  0  0  0  0  0  0  0  0  0  0  0
    1.9233    1.1104    0.0000 C   0  0  0  0  0  0  0  0  0  0  0  0
    1.9233    1.9354    0.0000 C   0  0  0  0  0  0  0  0  0  0  0  0
    0.9681    7.3397    0.0000 C   0  0  0  0  0  0  0  0  0  0  0  0
    0.6538    1.5229    0.0000 C   0  0  0  0  0  0  0  0  0  0  0  0
   -0.0517   10.4782    0.0000 F   0  0  0  0  0  0  0  0  0  0  0  0
    1.1387    0.8555    0.0000 N   0  0  0  0  0  0  0  0  0  0  0  0
    0.3739    4.5442    0.0000 N   0  0  0  0  0  0  0  0  0  0  0  0
    1.1387    2.1904    0.0000 N   0  0  0  0  0  0  0  0  0  0  0  0
    1.7751    7.1682    0.0000 O   0  0  0  0  0  0  0  0  0  0  0  0
   -0.1712    1.5229    0.0000 O   0  0  0  0  0  0  0  0  0  0  0  0
  2  1  2  0
  4  1  1  0
  5  2  1  0
  6  3  1  0
  9  7  2  0
 10  8  1  0
 13  3  1  0
 14 11  1  0
 15 12  1  0
 16  7  1  0
 16  8  2  0
 17  9  1  0
 17 10  2  0
 18 11  1  0
 18 12  1  0
 19  4  2  0
 20  5  2  0
 20 19  1  0
 21  6  1  0
 21 16  1  0
 23 17  1  0
 24 19  1  0
 24 22  2  0
 25 13  1  0
 25 14  1  0
 25 15  1  0
 26 18  1  0
 26 20  1  0
 26 22  1  0
 27 21  2  0
 28 22  1  0
M  END
$$$$
