
     RDKit          2D

 24 27  0  0  0  0  0  0  0  0999 V2000
    2.9943    7.5415    0.0000 C   0  0  0  0  0  0  0  0  0  0  0  0
    2.5587    6.8408    0.0000 N   0  0  0  0  0  0  0  0  0  0  0  0
    2.9477    6.1133    0.0000 C   0  0  0  0  0  0  0  0  0  0  0  0
    2.5122    5.4126    0.0000 C   0  0  0  0  0  0  0  0  0  0  0  0
    2.9012    4.6851    0.0000 C   0  0  0  0  0  0  0  0  0  0  0  0
    2.4656    3.9844    0.0000 C   0  0  0  0  0  0  0  0  0  0  0  0
    1.6410    4.0113    0.0000 C   0  0  0  0  0  0  0  0  0  0  0  0
    1.2520    4.7389    0.0000 C   0  0  0  0  0  0  0  0  0  0  0  0
    1.6876    5.4395    0.0000 C   0  0  0  0  0  0  0  0  0  0  0  0
    1.2055    3.3107    0.0000 C   0  0  0  0  0  0  0  0  0  0  0  0
    1.5163    2.5465    0.0000 C   0  0  0  0  0  0  0  0  0  0  0  0
    0.8855    2.0147    0.0000 C   0  0  0  0  0  0  0  0  0  0  0  0
    0.9080    1.1900    0.0000 C   0  0  0  0  0  0  0  0  0  0  0  0
    0.1311    0.8012    0.0000 C   0  0  0  0  0  0  0  0  0  0  0  0
   -0.5696    1.2367    0.0000 C   0  0  0  0  0  0  0  0  0  0  0  0
   -0.5427    2.0613    0.0000 C   0  0  0  0  0  0  0  0  0  0  0  0
    0.1849    2.4503    0.0000 C   0  0  0  0  0  0  0  0  0  0  0  0
    0.3826    3.2512    0.0000 N   0  0  0  0  0  0  0  0  0  0  0  0
   -1.2971    0.8477    0.0000 F   0  0  0  0  0  0  0  0  0  0  0  0
    1.5668    0.6934    0.0000 C   0  0  0  0  0  0  0  0  0  0  0  0
    1.4052   -0.1156    0.0000 O   0  0  0  0  0  0  0  0  0  0  0  0
    2.3658    0.8988    0.0000 N   0  0  0  0  0  0  0  0  0  0  0  0
    2.7034    1.6516    0.0000 C   0  0  0  0  0  0  0  0  0  0  0  0
    2.3253    2.3849    0.0000 C   0  0  0  0  0  0  0  0  0  0  0  0
  1  2  1  0
  2  3  1  0
  3  4  1  0
  4  5  2  0
  5  6  1  0
  6  7  2  0
  7  8  1  0
  8  9  2  0
  4  9  1  0
  7 10  1  0
 10 11  2  0
 11 12  1  0
 12 13  1  0
 13 14  2  0
 14 15  1  0
 15 16  2  0
 16 17  1  0
 12 17  2  0
 17 18  1  0
 10 18  1  0
 15 19  1  0
 13 20  1  0
 20 21  2  0
 20 22  1  0
 22 23  1  0
 23 24  1  0
 11 24  1  0
M  END
$$$$
