
     RDKit          2D

 18 18  0  0  0  0  0  0  0  0999 V2000
    1.0745    0.6181    0.0000 C   0  0  0  0  0  0  0  0  0  0  0  0
    1.0733   -0.2093    0.0000 C   0  0  0  0  0  0  0  0  0  0  0  0
    1.7882   -0.6221    0.0000 C   0  0  0  0  0  0  0  0  0  0  0  0
    2.5046   -0.2088    0.0000 C   0  0  0  0  0  0  0  0  0  0  0  0
    2.5017    0.6216    0.0000 C   0  0  0  0  0  0  0  0  0  0  0  0
    1.7864    1.0308    0.0000 C   0  0  0  0  0  0  0  0  0  0  0  0
    3.2147    1.0368    0.0000 O   0  0  0  0  0  0  0  0  0  0  0  0
    1.7839    1.8559    0.0000 O   0  0  0  0  0  0  0  0  0  0  0  0
    0.3599    1.0303    0.0000 O   0  0  0  0  0  0  0  0  0  0  0  0
    0.3586   -0.6212    0.0000 C   0  0  0  0  0  0  0  0  0  0  0  0
   -0.3555   -0.2081    0.0000 N   0  0  0  0  0  0  0  0  0  0  0  0
   -1.0703   -0.6201    0.0000 N   0  0  0  0  0  0  0  0  0  0  0  0
   -1.7844   -0.2069    0.0000 C   0  0  0  0  0  0  0  0  0  0  0  0
   -2.4992   -0.6188    0.0000 C   0  0  0  0  0  0  0  0  0  0  0  0
   -1.7838    0.6179    0.0000 O   0  0  0  0  0  0  0  0  0  0  0  0
   -3.2134   -0.2059    0.0000 N   0  0  0  0  0  0  0  0  0  0  0  0
   -2.4999   -1.4439    0.0000 C   0  0  0  0  0  0  0  0  0  0  0  0
   -3.2147   -1.8559    0.0000 O   0  0  0  0  0  0  0  0  0  0  0  0
  1  9  1  0
  4  5  2  0
  2 10  1  0
  2  3  2  0
 10 11  1  0
  5  6  1  0
 11 12  1  0
  6  1  2  0
 12 13  1  0
  1  2  1  0
 13 14  1  0
  5  7  1  0
 13 15  2  0
  3  4  1  0
 14 16  1  0
  6  8  1  0
 14 17  1  0
 17 18  1  0
M  END
$$$$
