
     RDKit          2D

 40 44  0  0  1  0  0  0  0  0999 V2000
    2.1737    7.4099    0.0000 C   0  0  0  0  0  0  0  0  0  0  0  0
    1.8382    6.6562    0.0000 C   0  0  0  0  0  0  0  0  0  0  0  0
    1.6666    5.8493    0.0000 C   0  0  0  0  0  0  0  0  0  0  0  0
    0.8462    5.7630    0.0000 N   0  0  0  0  0  0  0  0  0  0  0  0
    0.5106    6.5167    0.0000 C   0  0  0  0  0  0  0  0  0  0  0  0
    1.1237    7.0687    0.0000 S   0  0  0  0  0  0  0  0  0  0  0  0
   -0.2431    6.1811    0.0000 C   0  0  0  0  0  0  0  0  0  0  0  0
    0.0925    5.4275    0.0000 C   0  0  0  0  0  0  0  0  0  0  0  0
   -0.2032    4.6573    0.0000 O   0  0  0  0  0  0  0  0  0  0  0  0
   -1.0133    6.4768    0.0000 N   0  0  0  0  0  0  0  0  0  0  0  0
   -1.6544    5.9576    0.0000 C   0  0  0  0  0  0  0  0  0  0  0  0
   -1.5254    5.1428    0.0000 O   0  0  0  0  0  0  0  0  0  0  0  0
   -2.4246    6.2533    0.0000 C   0  0  0  0  0  0  0  0  0  0  0  0
   -3.0658    5.7341    0.0000 C   0  0  0  0  0  0  0  0  0  0  0  0
   -2.9367    4.9192    0.0000 C   0  0  0  0  0  0  0  0  0  0  0  0
   -3.5779    4.4000    0.0000 C   0  0  0  0  0  0  0  0  0  0  0  0
   -4.3481    4.6957    0.0000 C   0  0  0  0  0  0  0  0  0  0  0  0
   -4.4771    5.5105    0.0000 C   0  0  0  0  0  0  0  0  0  0  0  0
   -3.8360    6.0297    0.0000 C   0  0  0  0  0  0  0  0  0  0  0  0
   -2.5537    7.0681    0.0000 N   0  0  0  0  0  0  0  0  0  0  0  0
    2.2187    5.2362    0.0000 C   0  0  0  0  0  0  0  0  0  0  0  0
    3.0256    5.4077    0.0000 O   0  0  0  0  0  0  0  0  0  0  0  0
    1.9637    4.4516    0.0000 O   0  0  0  0  0  0  0  0  0  0  0  0
    2.5158    3.8385    0.0000 C   0  0  0  0  0  0  0  0  0  0  0  0
    2.2608    3.0538    0.0000 O   0  0  0  0  0  0  0  0  0  0  0  0
    2.8129    2.4407    0.0000 C   0  0  0  0  0  0  0  0  0  0  0  0
    3.6198    2.6123    0.0000 O   0  0  0  0  0  0  0  0  0  0  0  0
    2.5579    1.6561    0.0000 C   0  0  0  0  0  0  0  0  0  0  0  0
    3.0428    0.9887    0.0000 C   0  0  0  0  0  0  0  0  0  0  0  0
    2.5579    0.3212    0.0000 S   0  0  0  0  0  0  0  0  0  0  0  0
    3.2724   -0.0913    0.0000 O   0  0  0  0  0  0  0  0  0  0  0  0
    2.2224   -0.4324    0.0000 O   0  0  0  0  0  0  0  0  0  0  0  0
    1.7733    0.5762    0.0000 C   0  0  0  0  0  0  0  0  0  0  0  0
    1.7733    1.4012    0.0000 N   0  0  0  0  0  0  0  0  0  0  0  0
    0.9483    1.4012    0.0000 C   0  0  0  0  0  0  0  0  0  0  0  0
    0.3649    1.9845    0.0000 O   0  0  0  0  0  0  0  0  0  0  0  0
    0.9483    0.5762    0.0000 C   0  0  0  0  0  0  0  0  0  0  0  0
    3.7616    1.3937    0.0000 C   0  0  0  0  0  0  0  0  0  0  0  0
    3.7616    0.5837    0.0000 C   0  0  0  0  0  0  0  0  0  0  0  0
    2.6228    6.4013    0.0000 C   0  0  0  0  0  0  0  0  0  0  0  0
  1  2  1  0
  2  3  1  0
  3  4  1  0
  5  4  1  0
  5  6  1  1
  2  6  1  0
  5  7  1  0
  7  8  1  0
  4  8  1  0
  8  9  2  0
  7 10  1  1
 10 11  1  0
 11 12  2  0
 11 13  1  0
 13 14  1  0
 14 15  2  0
 15 16  1  0
 16 17  2  0
 17 18  1  0
 18 19  2  0
 14 19  1  0
 13 20  1  1
  3 21  1  6
 21 22  2  0
 21 23  1  0
 23 24  1  0
 24 25  1  0
 25 26  1  0
 26 27  2  0
 28 26  1  1
 28 29  1  0
 29 30  1  0
 30 31  2  0
 30 32  2  0
 30 33  1  0
 33 34  1  0
 28 34  1  0
 34 35  1  0
 35 36  2  0
 35 37  1  0
 33 37  1  6
 29 38  1  0
 29 39  1  0
  2 40  1  0
M  END
$$$$
