
     RDKit          2D

 27 29  0  0  0  0  0  0  0  0999 V2000
   -4.7289    4.1250    0.0000 C   0  0  0  0  0  0  0  0  0  0  0  0
    2.2836    1.9816    0.0000 C   0  0  0  0  0  0  0  0  0  0  0  0
   -4.3164    3.4105    0.0000 C   0  0  0  0  0  0  0  0  0  0  0  0
   -2.2539    0.2211    0.0000 C   0  0  0  0  0  0  0  0  0  0  0  0
   -2.2539    5.1711    0.0000 C   0  0  0  0  0  0  0  0  0  0  0  0
   -1.5395    0.6336    0.0000 C   0  0  0  0  0  0  0  0  0  0  0  0
   -2.9684    0.6336    0.0000 C   0  0  0  0  0  0  0  0  0  0  0  0
   -2.9684    4.7586    0.0000 C   0  0  0  0  0  0  0  0  0  0  0  0
   -1.5395    4.7586    0.0000 C   0  0  0  0  0  0  0  0  0  0  0  0
   -1.5395    1.4586    0.0000 C   0  0  0  0  0  0  0  0  0  0  0  0
   -2.9684    1.4586    0.0000 C   0  0  0  0  0  0  0  0  0  0  0  0
   -2.9684    3.9336    0.0000 C   0  0  0  0  0  0  0  0  0  0  0  0
   -1.5395    3.9336    0.0000 C   0  0  0  0  0  0  0  0  0  0  0  0
    0.2211    1.2671    0.0000 C   0  0  0  0  0  0  0  0  0  0  0  0
    0.2211    2.6961    0.0000 C   0  0  0  0  0  0  0  0  0  0  0  0
    1.0461    1.2671    0.0000 C   0  0  0  0  0  0  0  0  0  0  0  0
    1.0461    2.6961    0.0000 C   0  0  0  0  0  0  0  0  0  0  0  0
   -3.4914    3.4105    0.0000 C   0  0  0  0  0  0  0  0  0  0  0  0
   -2.2539    1.8711    0.0000 C   0  0  0  0  0  0  0  0  0  0  0  0
   -2.2539    3.5211    0.0000 C   0  0  0  0  0  0  0  0  0  0  0  0
   -0.1914    1.9816    0.0000 C   0  0  0  0  0  0  0  0  0  0  0  0
   -1.4289    2.6961    0.0000 C   0  0  0  0  0  0  0  0  0  0  0  0
   -2.2539    2.6961    0.0000 C   0  0  0  0  0  0  0  0  0  0  0  0
    1.4586    1.9816    0.0000 N   0  0  0  0  0  0  0  0  0  0  0  0
   -1.0164    3.4105    0.0000 O   0  0  0  0  0  0  0  0  0  0  0  0
   -3.0789    2.6961    0.0000 O   0  0  0  0  0  0  0  0  0  0  0  0
   -1.0164    1.9816    0.0000 O   0  0  0  0  0  0  0  0  0  0  0  0
  3  1  1  0
  6  4  2  0
  7  4  1  0
  8  5  2  0
  9  5  1  0
 10  6  1  0
 11  7  2  0
 12  8  1  0
 13  9  2  0
 16 14  1  0
 17 15  1  0
 18  3  1  0
 19 10  2  0
 19 11  1  0
 20 12  2  0
 20 13  1  0
 21 14  1  0
 21 15  1  0
 23 19  1  0
 23 20  1  0
 23 22  1  0
 24  2  1  0
 24 16  1  0
 24 17  1  0
 25 22  2  0
 26 18  1  0
 26 23  1  0
 27 21  1  0
 27 22  1  0
M  END
$$$$
