
     RDKit          2D

 22 24  0  0  0  0  0  0  0  0999 V2000
    2.0367    6.8277    0.0000 C   0  0  0  0  0  0  0  0  0  0  0  0
    2.7512    7.2402    0.0000 C   0  0  0  0  0  0  0  0  0  0  0  0
    3.4656    6.8277    0.0000 C   0  0  0  0  0  0  0  0  0  0  0  0
    3.4656    6.0027    0.0000 C   0  0  0  0  0  0  0  0  0  0  0  0
    2.7512    5.5902    0.0000 C   0  0  0  0  0  0  0  0  0  0  0  0
    2.0367    6.0027    0.0000 C   0  0  0  0  0  0  0  0  0  0  0  0
    2.7512    4.7652    0.0000 C   0  0  0  0  0  0  0  0  0  0  0  0
    3.4656    4.3527    0.0000 N   0  0  0  0  0  0  0  0  0  0  0  0
    3.4656    3.5277    0.0000 C   0  0  0  0  0  0  0  0  0  0  0  0
    4.1331    3.0428    0.0000 C   0  0  0  0  0  0  0  0  0  0  0  0
    4.9177    3.2977    0.0000 O   0  0  0  0  0  0  0  0  0  0  0  0
    3.8781    2.2581    0.0000 N   0  0  0  0  0  0  0  0  0  0  0  0
    3.0531    2.2581    0.0000 O   0  0  0  0  0  0  0  0  0  0  0  0
    2.7982    3.0428    0.0000 C   0  0  0  0  0  0  0  0  0  0  0  0
    2.7512    8.0652    0.0000 C   0  0  0  0  0  0  0  0  0  0  0  0
    2.0367    8.4777    0.0000 N   0  0  0  0  0  0  0  0  0  0  0  0
    2.0367    9.3027    0.0000 C   0  0  0  0  0  0  0  0  0  0  0  0
    1.3693    9.7876    0.0000 C   0  0  0  0  0  0  0  0  0  0  0  0
    0.5846    9.5327    0.0000 O   0  0  0  0  0  0  0  0  0  0  0  0
    1.6242   10.5722    0.0000 N   0  0  0  0  0  0  0  0  0  0  0  0
    2.4492   10.5722    0.0000 O   0  0  0  0  0  0  0  0  0  0  0  0
    2.7041    9.7876    0.0000 C   0  0  0  0  0  0  0  0  0  0  0  0
  1  2  2  0
  2  3  1  0
  3  4  2  0
  4  5  1  0
  5  6  2  0
  1  6  1  0
  5  7  1  0
  7  8  2  0
  8  9  1  0
  9 10  1  0
 10 11  2  0
 10 12  1  0
 12 13  1  0
 13 14  1  0
  9 14  1  0
  2 15  1  0
 15 16  2  0
 16 17  1  0
 17 18  1  0
 18 19  2  0
 18 20  1  0
 20 21  1  0
 21 22  1  0
 17 22  1  0
M  END
$$$$
