
     RDKit          2D

 19 21  0  0  0  0  0  0  0  0999 V2000
    4.6438   -0.1362    0.0000 C   0  0  0  0  0  0  0  0  0  0  0  0
    2.5559    4.9044    0.0000 C   0  0  0  0  0  0  0  0  0  0  0  0
    2.0537    4.2498    0.0000 C   0  0  0  0  0  0  0  0  0  0  0  0
    3.3739    4.7967    0.0000 C   0  0  0  0  0  0  0  0  0  0  0  0
    1.4908    1.2094    0.0000 C   0  0  0  0  0  0  0  0  0  0  0  0
    1.4908    2.0344    0.0000 C   0  0  0  0  0  0  0  0  0  0  0  0
    2.3694    3.4876    0.0000 C   0  0  0  0  0  0  0  0  0  0  0  0
    3.6896    4.0345    0.0000 C   0  0  0  0  0  0  0  0  0  0  0  0
    2.2053    0.7969    0.0000 C   0  0  0  0  0  0  0  0  0  0  0  0
    2.2053    2.4469    0.0000 C   0  0  0  0  0  0  0  0  0  0  0  0
    4.9114    1.2094    0.0000 C   0  0  0  0  0  0  0  0  0  0  0  0
    4.9114    2.0344    0.0000 C   0  0  0  0  0  0  0  0  0  0  0  0
    3.5031    0.6260    0.0000 C   0  0  0  0  0  0  0  0  0  0  0  0
    3.1874    3.3800    0.0000 C   0  0  0  0  0  0  0  0  0  0  0  0
    2.9197    1.2094    0.0000 C   0  0  0  0  0  0  0  0  0  0  0  0
    2.9197    2.0344    0.0000 C   0  0  0  0  0  0  0  0  0  0  0  0
    3.5031    2.6178    0.0000 C   0  0  0  0  0  0  0  0  0  0  0  0
    4.3281    0.6260    0.0000 N   0  0  0  0  0  0  0  0  0  0  0  0
    4.3281    2.6178    0.0000 O   0  0  0  0  0  0  0  0  0  0  0  0
  3  2  2  0
  4  2  1  0
  6  5  2  0
  7  3  1  0
  8  4  2  0
  9  5  1  0
 10  6  1  0
 12 11  1  0
 14  7  2  0
 14  8  1  0
 15  9  2  0
 15 13  1  0
 16 10  2  0
 16 15  1  0
 17 14  1  0
 17 16  1  0
 18  1  1  0
 18 11  1  0
 18 13  1  0
 19 12  1  0
 19 17  1  0
M  END
$$$$
