
     RDKit          2D

 26 28  0  0  0  0  0  0  0  0999 V2000
    3.5724   -1.2375    0.0000 C   0  0  0  0  0  0  0  0  0  0  0  0
    2.8579   -1.6500    0.0000 C   0  0  0  0  0  0  0  0  0  0  0  0
    0.7145   -1.2375    0.0000 C   0  0  0  0  0  0  0  0  0  0  0  0
    1.4289   -2.4750    0.0000 C   0  0  0  0  0  0  0  0  0  0  0  0
    7.6919    0.2583    0.0000 C   0  0  0  0  0  0  0  0  0  0  0  0
    6.4801    1.0156    0.0000 C   0  0  0  0  0  0  0  0  0  0  0  0
    8.1291    0.9580    0.0000 C   0  0  0  0  0  0  0  0  0  0  0  0
    6.9173    1.7152    0.0000 C   0  0  0  0  0  0  0  0  0  0  0  0
    0.0000   -1.6500    0.0000 C   0  0  0  0  0  0  0  0  0  0  0  0
    0.7145   -2.8875    0.0000 C   0  0  0  0  0  0  0  0  0  0  0  0
    5.7158    0.0000    0.0000 C   0  0  0  0  0  0  0  0  0  0  0  0
    6.4302   -1.2375    0.0000 C   0  0  0  0  0  0  0  0  0  0  0  0
    4.2868   -1.6500    0.0000 C   0  0  0  0  0  0  0  0  0  0  0  0
    5.0013   -0.4125    0.0000 C   0  0  0  0  0  0  0  0  0  0  0  0
    5.7158   -1.6500    0.0000 C   0  0  0  0  0  0  0  0  0  0  0  0
    1.4289   -1.6500    0.0000 C   0  0  0  0  0  0  0  0  0  0  0  0
    6.8674    0.2871    0.0000 C   0  0  0  0  0  0  0  0  0  0  0  0
    7.7418    1.6864    0.0000 C   0  0  0  0  0  0  0  0  0  0  0  0
    0.0000   -2.4750    0.0000 C   0  0  0  0  0  0  0  0  0  0  0  0
    2.1434   -1.2375    0.0000 C   0  0  0  0  0  0  0  0  0  0  0  0
    6.4302   -0.4125    0.0000 C   0  0  0  0  0  0  0  0  0  0  0  0
    8.1790    2.3861    0.0000 Br  0  0  0  0  0  0  0  0  0  0  0  0
   -0.7145   -2.8875    0.0000 F   0  0  0  0  0  0  0  0  0  0  0  0
    5.0013   -1.2375    0.0000 N   0  0  0  0  0  0  0  0  0  0  0  0
    2.1434   -0.4125    0.0000 O   0  0  0  0  0  0  0  0  0  0  0  0
    7.2547   -0.3837    0.0000 O   0  0  0  0  0  0  0  0  0  0  0  0
  2  1  1  0
  7  5  2  0
  8  6  1  0
  9  3  2  0
 10  4  1  0
 13  1  1  0
 14 11  1  0
 15 12  1  0
 16  3  1  0
 16  4  2  0
 17  5  1  0
 17  6  2  0
 18  7  1  0
 18  8  2  0
 19  9  1  0
 19 10  2  0
 20  2  1  0
 20 16  1  0
 21 11  1  0
 21 12  1  0
 21 17  1  0
 22 18  1  0
 23 19  1  0
 24 13  1  0
 24 14  1  0
 24 15  1  0
 25 20  2  0
 26 21  1  0
M  END
$$$$
