
     RDKit          2D

 40 43  0  0  0  0  0  0  0  0999 V2000
   -3.8743    3.2984    0.0000 P   0  0  0  0  0  0  0  0  0  0  0  0
   -3.8743    2.4734    0.0000 O   0  0  0  0  0  0  0  0  0  0  0  0
   -3.1599    2.0609    0.0000 C   0  0  0  0  0  0  0  0  0  0  0  0
   -3.1599    1.2359    0.0000 N   0  0  0  0  0  0  0  0  0  0  0  0
   -3.8743    0.8234    0.0000 C   0  0  0  0  0  0  0  0  0  0  0  0
   -3.8743   -0.0015    0.0000 C   0  0  0  0  0  0  0  0  0  0  0  0
   -3.1599   -0.4140    0.0000 O   0  0  0  0  0  0  0  0  0  0  0  0
   -2.4453   -0.0015    0.0000 C   0  0  0  0  0  0  0  0  0  0  0  0
   -2.4453    0.8234    0.0000 C   0  0  0  0  0  0  0  0  0  0  0  0
   -1.7309   -0.4140    0.0000 C   0  0  0  0  0  0  0  0  0  0  0  0
   -1.0163   -0.0015    0.0000 C   0  0  0  0  0  0  0  0  0  0  0  0
   -1.0163    0.8234    0.0000 C   0  0  0  0  0  0  0  0  0  0  0  0
   -1.7309    1.2359    0.0000 N   0  0  0  0  0  0  0  0  0  0  0  0
   -4.5888    1.2359    0.0000 O   0  0  0  0  0  0  0  0  0  0  0  0
   -4.6993   -0.0015    0.0000 C   0  0  0  0  0  0  0  0  0  0  0  0
   -4.0879   -0.7984    0.0000 C   0  0  0  0  0  0  0  0  0  0  0  0
   -0.3020    1.2359    0.0000 N   0  0  0  0  0  0  0  0  0  0  0  0
    0.4125    0.8234    0.0000 C   0  0  0  0  0  0  0  0  0  0  0  0
    0.4125   -0.0015    0.0000 N   0  0  0  0  0  0  0  0  0  0  0  0
    1.1270   -0.4140    0.0000 C   0  0  0  0  0  0  0  0  0  0  0  0
    1.8414   -0.0015    0.0000 N   0  0  0  0  0  0  0  0  0  0  0  0
    1.8414    0.8234    0.0000 C   0  0  0  0  0  0  0  0  0  0  0  0
    1.1270    1.2359    0.0000 C   0  0  0  0  0  0  0  0  0  0  0  0
    1.1270    2.0609    0.0000 F   0  0  0  0  0  0  0  0  0  0  0  0
    1.1270   -1.2390    0.0000 N   0  0  0  0  0  0  0  0  0  0  0  0
    1.8414   -1.6515    0.0000 C   0  0  0  0  0  0  0  0  0  0  0  0
    1.8414   -2.4765    0.0000 C   0  0  0  0  0  0  0  0  0  0  0  0
    2.5559   -2.8890    0.0000 C   0  0  0  0  0  0  0  0  0  0  0  0
    3.2704   -2.4765    0.0000 C   0  0  0  0  0  0  0  0  0  0  0  0
    3.2704   -1.6515    0.0000 C   0  0  0  0  0  0  0  0  0  0  0  0
    2.5559   -1.2390    0.0000 C   0  0  0  0  0  0  0  0  0  0  0  0
    3.9849   -1.2390    0.0000 O   0  0  0  0  0  0  0  0  0  0  0  0
    4.6993   -1.6515    0.0000 C   0  0  0  0  0  0  0  0  0  0  0  0
    3.9849   -2.8890    0.0000 O   0  0  0  0  0  0  0  0  0  0  0  0
    3.9849   -3.7140    0.0000 C   0  0  0  0  0  0  0  0  0  0  0  0
    2.5559   -3.7140    0.0000 O   0  0  0  0  0  0  0  0  0  0  0  0
    1.8414   -4.1265    0.0000 C   0  0  0  0  0  0  0  0  0  0  0  0
   -4.5888    3.7109    0.0000 O   0  0  0  0  0  0  0  0  0  0  0  0
   -3.1597    3.7109    0.0000 O   0  0  0  0  0  0  0  0  0  0  0  0
   -3.8792    4.1265    0.0000 O   0  0  0  0  0  0  0  0  0  0  0  0
  8  9  2  0
  9  4  1  0
  8 10  1  0
 10 11  2  0
 11 12  1  0
 12 13  2  0
 13  9  1  0
  5 14  2  0
  6 15  1  0
  6 16  1  0
 12 17  1  0
 17 18  1  0
 18 19  2  0
 19 20  1  0
 20 21  2  0
 21 22  1  0
 22 23  2  0
 23 18  1  0
 23 24  1  0
 20 25  1  0
 25 26  1  0
 26 27  2  0
 27 28  1  0
 28 29  2  0
 29 30  1  0
 30 31  2  0
 31 26  1  0
 30 32  1  0
 32 33  1  0
 29 34  1  0
 34 35  1  0
  1  2  1  0
 28 36  1  0
  2  3  1  0
 36 37  1  0
  3  4  1  0
  1 38  2  0
  4  5  1  0
  1 39  1  0
  5  6  1  0
  1 40  1  0
  6  7  1  0
  7  8  1  0
M  END
$$$$
