
     RDKit          2D

 45 50  0  0  1  0  0  0  0  0999 V2000
    3.4675   -1.1600    0.0000 C   0  0  0  0  0  0  0  0  0  0  0  0
    3.7079   -0.3708    0.0000 C   0  0  0  0  0  0  0  0  0  0  0  0
    4.2660   -0.9783    0.0000 C   0  0  0  0  0  0  0  0  0  0  0  0
    5.0712   -0.7987    0.0000 C   0  0  0  0  0  0  0  0  0  0  0  0
    5.3183   -0.0116    0.0000 C   0  0  0  0  0  0  0  0  0  0  0  0
    4.7601    0.5959    0.0000 C   0  0  0  0  0  0  0  0  0  0  0  0
    3.9549    0.4163    0.0000 C   0  0  0  0  0  0  0  0  0  0  0  0
    3.4013    1.0406    0.0000 C   0  0  0  0  0  0  0  0  0  0  0  0
    2.5923    0.8721    0.0000 C   0  0  0  0  0  0  0  0  0  0  0  0
    2.2888    0.0848    0.0000 C   0  0  0  0  0  0  0  0  0  0  0  0
    2.8891   -0.5680    0.0000 C   0  0  0  0  0  0  0  0  0  0  0  0
    2.6457   -1.4133    0.0000 C   0  0  0  0  0  0  0  0  0  0  0  0
    1.8005   -1.5738    0.0000 C   0  0  0  0  0  0  0  0  0  0  0  0
    1.2392   -0.9158    0.0000 C   0  0  0  0  0  0  0  0  0  0  0  0
    1.8145   -0.4488    0.0000 C   0  0  0  0  0  0  0  0  0  0  0  0
    0.8565   -0.1421    0.0000 C   0  0  0  0  0  0  0  0  0  0  0  0
    0.0431   -0.0038    0.0000 C   0  0  0  0  0  0  0  0  0  0  0  0
    1.4780    0.4659    0.0000 C   0  0  0  0  0  0  0  0  0  0  0  0
    0.5504   -1.3699    0.0000 O   0  0  0  0  0  0  0  0  0  0  0  0
    0.5993   -2.1934    0.0000 C   0  0  0  0  0  0  0  0  0  0  0  0
   -0.0895   -2.6475    0.0000 C   0  0  0  0  0  0  0  0  0  0  0  0
   -0.0406   -3.4711    0.0000 C   0  0  0  0  0  0  0  0  0  0  0  0
    0.6970   -3.8405    0.0000 C   0  0  0  0  0  0  0  0  0  0  0  0
    1.3858   -3.3865    0.0000 C   0  0  0  0  0  0  0  0  0  0  0  0
    1.3369   -2.5629    0.0000 O   0  0  0  0  0  0  0  0  0  0  0  0
    2.1234   -3.7559    0.0000 C   0  0  0  0  0  0  0  0  0  0  0  0
    2.1723   -4.5795    0.0000 O   0  0  0  0  0  0  0  0  0  0  0  0
    0.7459   -4.6641    0.0000 O   0  0  0  0  0  0  0  0  0  0  0  0
   -0.7294   -3.9252    0.0000 O   0  0  0  0  0  0  0  0  0  0  0  0
   -0.8271   -2.2781    0.0000 O   0  0  0  0  0  0  0  0  0  0  0  0
   -1.5159   -2.7321    0.0000 C   0  0  0  0  0  0  0  0  0  0  0  0
   -2.2536   -2.3627    0.0000 C   0  0  0  0  0  0  0  0  0  0  0  0
   -2.9424   -2.8168    0.0000 C   0  0  0  0  0  0  0  0  0  0  0  0
   -2.8935   -3.6403    0.0000 C   0  0  0  0  0  0  0  0  0  0  0  0
   -2.1559   -4.0098    0.0000 C   0  0  0  0  0  0  0  0  0  0  0  0
   -1.4671   -3.5557    0.0000 O   0  0  0  0  0  0  0  0  0  0  0  0
   -2.1070   -4.8333    0.0000 C   0  0  0  0  0  0  0  0  0  0  0  0
   -2.7958   -5.2874    0.0000 O   0  0  0  0  0  0  0  0  0  0  0  0
   -3.5823   -4.0944    0.0000 O   0  0  0  0  0  0  0  0  0  0  0  0
   -3.6800   -2.4473    0.0000 O   0  0  0  0  0  0  0  0  0  0  0  0
   -2.3024   -1.5391    0.0000 O   0  0  0  0  0  0  0  0  0  0  0  0
    5.3478    1.1749    0.0000 C   0  0  0  0  0  0  0  0  0  0  0  0
    4.6088    1.4069    0.0000 C   0  0  0  0  0  0  0  0  0  0  0  0
    3.8307    1.6813    0.0000 O   0  0  0  0  0  0  0  0  0  0  0  0
    5.2354    1.9435    0.0000 O   0  0  0  0  0  0  0  0  0  0  0  0
  2  1  1  6
  2  3  1  0
  3  4  1  0
  4  5  1  0
  5  6  1  0
  6  7  1  0
  2  7  1  0
  7  8  1  6
  8  9  1  0
 10  9  1  6
 10 11  1  0
  2 11  1  0
 11 12  1  6
 12 13  1  0
 13 14  1  0
 14 15  1  0
 10 15  1  0
 14 16  1  0
 16 17  2  3
 16 18  1  0
 10 18  1  0
 14 19  1  6
 20 19  1  6
 20 21  1  0
 21 22  1  0
 22 23  1  0
 23 24  1  0
 24 25  1  0
 20 25  1  0
 24 26  1  6
 26 27  1  0
 23 28  1  1
 22 29  1  6
 21 30  1  1
 31 30  1  6
 31 32  1  0
 32 33  1  0
 33 34  1  0
 34 35  1  0
 35 36  1  0
 31 36  1  0
 35 37  1  6
 37 38  1  0
 34 39  1  1
 33 40  1  6
 32 41  1  1
  6 42  1  1
  6 43  1  0
 43 44  2  0
 43 45  1  0
M  END
$$$$
