
     RDKit          2D

 14 16  0  0  0  0  0  0  0  0999 V2000
    1.6374   -1.0323    0.0000 C   0  0  0  0  0  0  0  0  0  0  0  0
    1.6374    1.4337    0.0000 C   0  0  0  0  0  0  0  0  0  0  0  0
    0.1223   -0.2118    0.0000 C   0  0  0  0  0  0  0  0  0  0  0  0
    0.1223    0.6132    0.0000 C   0  0  0  0  0  0  0  0  0  0  0  0
    0.8367   -0.6243    0.0000 C   0  0  0  0  0  0  0  0  0  0  0  0
    0.8367    1.0257    0.0000 C   0  0  0  0  0  0  0  0  0  0  0  0
    2.3358   -0.4667    0.0000 C   0  0  0  0  0  0  0  0  0  0  0  0
    2.3358    0.8682    0.0000 C   0  0  0  0  0  0  0  0  0  0  0  0
    1.5512   -0.2118    0.0000 C   0  0  0  0  0  0  0  0  0  0  0  0
    1.5512    0.6132    0.0000 C   0  0  0  0  0  0  0  0  0  0  0  0
    2.5908   -1.2513    0.0000 O   0  0  0  0  0  0  0  0  0  0  0  0
    2.5908    1.6528    0.0000 O   0  0  0  0  0  0  0  0  0  0  0  0
    1.0430    0.2007    0.0000 O   0  0  0  0  0  0  0  0  0  0  0  0
    2.8208    0.2007    0.0000 O   0  0  0  0  0  0  0  0  0  0  0  0
  4  3  1  0
  5  3  1  6
  6  4  1  6
  9  1  1  6
  9  5  1  0
  9  7  1  0
 10  2  1  6
 10  6  1  0
 10  8  1  0
 10  9  1  0
 11  7  2  0
 12  8  2  0
 13  5  1  0
 13  6  1  0
 14  7  1  0
 14  8  1  0
M  END
$$$$
