
     RDKit          2D

 35 39  0  0  0  0  0  0  0  0999 V2000
    4.6912   -1.7427    0.0000 C   0  0  0  0  0  0  0  0  0  0  0  0
    5.1258   -1.0415    0.0000 O   0  0  0  0  0  0  0  0  0  0  0  0
    4.7358   -0.3145    0.0000 C   0  0  0  0  0  0  0  0  0  0  0  0
    5.1704    0.3867    0.0000 C   0  0  0  0  0  0  0  0  0  0  0  0
    4.7804    1.1137    0.0000 C   0  0  0  0  0  0  0  0  0  0  0  0
    3.9558    1.1395    0.0000 C   0  0  0  0  0  0  0  0  0  0  0  0
    3.5212    0.4383    0.0000 C   0  0  0  0  0  0  0  0  0  0  0  0
    3.9112   -0.2887    0.0000 C   0  0  0  0  0  0  0  0  0  0  0  0
    3.4766   -0.9900    0.0000 N   0  0  0  0  0  0  0  0  0  0  0  0
    2.6520   -0.9642    0.0000 C   0  0  0  0  0  0  0  0  0  0  0  0
    2.2620   -0.2372    0.0000 N   0  0  0  0  0  0  0  0  0  0  0  0
    2.6966    0.4640    0.0000 C   0  0  0  0  0  0  0  0  0  0  0  0
    2.1640    1.0941    0.0000 N   0  0  0  0  0  0  0  0  0  0  0  0
    1.4002    0.7822    0.0000 C   0  0  0  0  0  0  0  0  0  0  0  0
    1.4608   -0.0406    0.0000 C   0  0  0  0  0  0  0  0  0  0  0  0
    2.2174   -1.6655    0.0000 N   0  0  0  0  0  0  0  0  0  0  0  0
    1.3928   -1.6397    0.0000 C   0  0  0  0  0  0  0  0  0  0  0  0
    1.0028   -0.9127    0.0000 O   0  0  0  0  0  0  0  0  0  0  0  0
    0.9582   -2.3409    0.0000 C   0  0  0  0  0  0  0  0  0  0  0  0
    1.3481   -3.0679    0.0000 C   0  0  0  0  0  0  0  0  0  0  0  0
    0.9135   -3.7692    0.0000 N   0  0  0  0  0  0  0  0  0  0  0  0
    0.0889   -3.7434    0.0000 C   0  0  0  0  0  0  0  0  0  0  0  0
   -0.3011   -3.0164    0.0000 N   0  0  0  0  0  0  0  0  0  0  0  0
    0.1336   -2.3152    0.0000 C   0  0  0  0  0  0  0  0  0  0  0  0
   -0.3457   -4.4447    0.0000 N   0  0  0  0  0  0  0  0  0  0  0  0
    5.9950    0.3610    0.0000 O   0  0  0  0  0  0  0  0  0  0  0  0
    6.4296    1.0622    0.0000 C   0  0  0  0  0  0  0  0  0  0  0  0
    7.2542    1.0365    0.0000 C   0  0  0  0  0  0  0  0  0  0  0  0
    7.6888    1.7377    0.0000 C   0  0  0  0  0  0  0  0  0  0  0  0
    8.5134    1.7119    0.0000 N   0  0  0  0  0  0  0  0  0  0  0  0
    8.9480    2.4132    0.0000 C   0  0  0  0  0  0  0  0  0  0  0  0
    9.7726    2.3874    0.0000 C   0  0  0  0  0  0  0  0  0  0  0  0
   10.1626    1.6604    0.0000 O   0  0  0  0  0  0  0  0  0  0  0  0
    9.7280    0.9592    0.0000 C   0  0  0  0  0  0  0  0  0  0  0  0
    8.9034    0.9849    0.0000 C   0  0  0  0  0  0  0  0  0  0  0  0
  1  2  1  0
  2  3  1  0
  3  4  2  0
  4  5  1  0
  5  6  2  0
  6  7  1  0
  7  8  2  0
  3  8  1  0
  8  9  1  0
  9 10  2  0
 10 11  1  0
 11 12  1  0
  7 12  1  0
 12 13  2  0
 13 14  1  0
 14 15  1  0
 11 15  1  0
 10 16  1  0
 16 17  1  0
 17 18  2  0
 17 19  1  0
 19 20  2  0
 20 21  1  0
 21 22  2  0
 22 23  1  0
 23 24  2  0
 19 24  1  0
 22 25  1  0
  4 26  1  0
 26 27  1  0
 27 28  1  0
 28 29  1  0
 29 30  1  0
 30 31  1  0
 31 32  1  0
 32 33  1  0
 33 34  1  0
 34 35  1  0
 30 35  1  0
M  END
$$$$
