
     RDKit          2D

 14 13  0  0  0  0  0  0  0  0999 V2000
    0.8250   -1.6500    0.0000 C   0  0  0  0  0  0  0  0  0  0  0  0
    0.8250   -0.8250    0.0000 C   0  0  0  0  0  0  0  0  0  0  0  0
    0.8250   -2.4750    0.0000 C   0  0  0  0  0  0  0  0  0  0  0  0
    0.8250    0.0000    0.0000 C   0  0  0  0  0  0  0  0  0  0  0  0
    1.6500   -1.6500    0.0000 F   0  0  0  0  0  0  0  0  0  0  0  0
    0.0000   -1.6500    0.0000 F   0  0  0  0  0  0  0  0  0  0  0  0
    1.6500   -0.8250    0.0000 F   0  0  0  0  0  0  0  0  0  0  0  0
    0.0000   -0.8250    0.0000 F   0  0  0  0  0  0  0  0  0  0  0  0
    0.8250   -3.3000    0.0000 F   0  0  0  0  0  0  0  0  0  0  0  0
    1.6500   -2.4750    0.0000 F   0  0  0  0  0  0  0  0  0  0  0  0
    0.0000   -2.4750    0.0000 F   0  0  0  0  0  0  0  0  0  0  0  0
    0.8250    0.8250    0.0000 F   0  0  0  0  0  0  0  0  0  0  0  0
    1.6500   -0.0000    0.0000 F   0  0  0  0  0  0  0  0  0  0  0  0
    0.0000    0.0000    0.0000 F   0  0  0  0  0  0  0  0  0  0  0  0
  2  1  1  0
  3  1  1  0
  4  2  1  0
  5  1  1  0
  6  1  1  0
  7  2  1  0
  8  2  1  0
  9  3  1  0
 10  3  1  0
 11  3  1  0
 12  4  1  0
 13  4  1  0
 14  4  1  0
M  END
$$$$
