
     RDKit          2D

  8  7  0  0  0  0  0  0  0  0999 V2000
    4.5799   -0.2062    0.0000 C   0  0  0  0  0  0  0  0  0  0  0  0
    5.2944    0.2063    0.0000 C   0  0  0  0  0  0  0  0  0  0  0  0
    5.2944    1.0313    0.0000 O   0  0  0  0  0  0  0  0  0  0  0  0
    6.0089   -0.2063    0.0000 C   0  0  0  0  0  0  0  0  0  0  0  0
    6.7234    0.2063    0.0000 C   0  0  0  0  0  0  0  0  0  0  0  0
    7.4378   -0.2063    0.0000 C   0  0  0  0  0  0  0  0  0  0  0  0
    8.1523    0.2062    0.0000 O   0  0  0  0  0  0  0  0  0  0  0  0
    7.4378   -1.0313    0.0000 O   0  0  0  0  0  0  0  0  0  0  0  0
  1  2  1  0
  2  3  2  0
  2  4  1  0
  4  5  1  0
  5  6  1  0
  6  7  2  0
  6  8  1  0
M  CHG  1   8  -1
M  END
$$$$
