 
     RDKit          2D

 29 32  0  0  1  0  0  0  0  0999 V2000
   13.6617  -12.0997    0.0000 C   0  0  0  0  0  0  0  0  0  0  0  0
   12.9426  -11.6994    0.0000 C   0  0  0  0  0  0  0  0  0  0  0  0
   14.4054  -11.6923    0.0000 C   0  0  0  0  0  0  0  0  0  0  0  0
   13.6652  -12.9214    0.0000 C   0  0  0  0  0  0  0  0  0  0  0  0
   12.2377  -12.1103    0.0000 C   0  0  0  0  0  0  0  0  0  0  0  0
   12.9391  -10.8812    0.0000 C   0  0  0  0  0  0  0  0  0  0  0  0
   14.3985  -10.8776    0.0000 C   0  0  0  0  0  0  0  0  0  0  0  0
   15.7975  -11.6923    0.0000 C   0  0  0  0  0  0  0  0  0  0  0  0
   12.9532  -13.3429    0.0000 C   0  0  0  0  0  0  0  0  0  0  0  0
   12.2483  -12.9320    0.0000 C   0  0  0  0  0  0  0  0  0  0  0  0
   11.5292  -11.7065    0.0000 C   0  0  0  0  0  0  0  0  0  0  0  0
   12.2341  -11.2956    0.0000 C   0  0  0  0  0  0  0  0  0  0  0  0
   13.6475  -10.4703    0.0000 C   0  0  0  0  0  0  0  0  0  0  0  0
   15.0714  -10.4562    0.0000 C   0  0  0  0  0  0  0  0  0  0  0  0
   14.3913  -10.0204    0.0000 C   0  0  0  0  0  0  0  0  0  0  0  0
   15.7870  -10.8705    0.0000 C   0  0  0  0  0  0  0  0  0  0  0  0
   11.5364  -13.3500    0.0000 C   0  0  0  0  0  0  0  0  0  0  0  0
   10.8174  -12.1173    0.0000 C   0  0  0  0  0  0  0  0  0  0  0  0
   15.0679   -9.5990    0.0000 O   0  0  0  0  0  0  0  0  0  0  0  0
   10.8210  -12.9391    0.0000 C   0  0  0  0  0  0  0  0  0  0  0  0
   10.0877  -13.3642    0.0000 O   0  0  0  0  0  0  0  0  0  0  0  0
   15.7948   -9.1755    0.0000 C   0  0  0  0  0  0  0  0  0  0  0  0
   16.5304   -9.5962    0.0000 C   0  0  0  0  0  0  0  0  0  0  0  0
   15.7915   -8.3335    0.0000 O   0  0  0  0  0  0  0  0  0  0  0  0
   17.2439   -9.1806    0.0000 C   0  0  0  0  0  0  0  0  0  0  0  0
   17.9748   -9.5990    0.0000 C   0  0  0  0  0  0  0  0  0  0  0  0
   18.6907   -9.1820    0.0000 C   0  0  0  0  0  0  0  0  0  0  0  0
   19.4204   -9.5998    0.0000 C   0  0  0  0  0  0  0  0  0  0  0  0
   20.1369   -9.1825    0.0000 C   0  0  0  0  0  0  0  0  0  0  0  0
  1  2  1  0
  1  3  1  0
  1  4  1  6
  2  5  1  0
  2  6  1  1
  3  7  1  0
  3  8  1  1
  4  9  1  0
  5 10  1  0
  5 11  1  0
  5 12  1  1
  6 13  1  0
  7 14  1  0
  7 15  1  1
  8 16  1  0
 10 17  2  0
 11 18  1  0
 14 19  1  1
 17 20  1  0
 20 21  2  0
  7 13  1  0
  9 10  1  0
 14 16  1  0
 18 20  1  0
 19 22  1  0
 22 23  1  0
 22 24  2  0
 23 25  1  0
 25 26  1  0
 26 27  1  0
 27 28  1  0
 28 29  1  0
M  END
$$$$
