
     RDKit          2D

 22 24  0  0  0  0  0  0  0  0999 V2000
    0.1722   -2.1447    0.0000 C   0  0  0  0  0  0  0  0  0  0  0  0
    0.1722   -0.4946    0.0000 C   0  0  0  0  0  0  0  0  0  0  0  0
   -0.5521   -0.9072    0.0000 C   0  0  0  0  0  0  0  0  0  0  0  0
   -0.5521   -1.7322    0.0000 C   0  0  0  0  0  0  0  0  0  0  0  0
    0.8866   -0.9072    0.0000 C   0  0  0  0  0  0  0  0  0  0  0  0
    0.8866   -1.7322    0.0000 C   0  0  0  0  0  0  0  0  0  0  0  0
    1.6009   -2.1447    0.0000 C   0  0  0  0  0  0  0  0  0  0  0  0
    2.3153   -1.7322    0.0000 N   0  0  0  0  0  0  0  0  0  0  0  0
    2.3153   -0.9072    0.0000 C   0  0  0  0  0  0  0  0  0  0  0  0
    1.6009   -0.4946    0.0000 C   0  0  0  0  0  0  0  0  0  0  0  0
    1.6009    0.1665    0.0000 F   0  0  0  0  0  0  0  0  0  0  0  0
    0.1771    0.3322    0.0000 S   0  0  0  0  0  0  0  0  0  0  0  0
   -0.5363    0.7503    0.0000 N   0  0  0  0  0  0  0  0  0  0  0  0
   -1.2301    0.2938    0.0000 C   0  0  0  0  0  0  0  0  0  0  0  0
   -2.0183    0.5424    0.0000 C   0  0  0  0  0  0  0  0  0  0  0  0
   -0.4771    1.5787    0.0000 C   0  0  0  0  0  0  0  0  0  0  0  0
   -2.3153    1.3137    0.0000 C   0  0  0  0  0  0  0  0  0  0  0  0
   -1.0794    2.1447    0.0000 C   0  0  0  0  0  0  0  0  0  0  0  0
   -1.8974    2.0269    0.0000 N   0  0  0  0  0  0  0  0  0  0  0  0
    0.1387    1.8193    0.0000 C   0  0  0  0  0  0  0  0  0  0  0  0
    0.7517    0.6592    0.0000 O   0  0  0  0  0  0  0  0  0  0  0  0
    0.7477   -0.0017    0.0000 O   0  0  0  0  0  0  0  0  0  0  0  0
  1  6  2  0
  5  2  2  0
  2  3  1  0
  3  4  2  0
  4  1  1  0
  5  6  1  0
  6  7  1  0
  7  8  2  0
  8  9  1  0
  9 10  2  0
 10  5  1  0
 10 11  1  0
  2 12  1  0
 12 13  1  0
 13 14  1  0
 14 15  1  0
 13 16  1  0
 15 17  1  0
 16 18  1  0
 17 19  1  0
 18 19  1  0
 16 20  1  6
 12 21  2  0
 12 22  2  0
M  END
$$$$
