
     RDKit          2D

 33 36  0  0  0  0  0  0  0  0999 V2000
   -1.4374    2.0331    0.0000 C   0  0  0  0  0  0  0  0  0  0  0  0
   -2.1519    1.6206    0.0000 C   0  0  0  0  0  0  0  0  0  0  0  0
   -2.1519    0.7955    0.0000 C   0  0  0  0  0  0  0  0  0  0  0  0
   -1.4374    0.3830    0.0000 C   0  0  0  0  0  0  0  0  0  0  0  0
   -0.7229    0.7955    0.0000 C   0  0  0  0  0  0  0  0  0  0  0  0
   -0.7229    1.6206    0.0000 C   0  0  0  0  0  0  0  0  0  0  0  0
   -0.0083    2.0331    0.0000 O   0  0  0  0  0  0  0  0  0  0  0  0
   -0.0083    0.3830    0.0000 C   0  0  0  0  0  0  0  0  0  0  0  0
    0.7060    0.7955    0.0000 C   0  0  0  0  0  0  0  0  0  0  0  0
    0.7060    1.6206    0.0000 C   0  0  0  0  0  0  0  0  0  0  0  0
    1.4205    2.0331    0.0000 C   0  0  0  0  0  0  0  0  0  0  0  0
    1.4205    0.3830    0.0000 C   0  0  0  0  0  0  0  0  0  0  0  0
    2.1350    0.7955    0.0000 C   0  0  0  0  0  0  0  0  0  0  0  0
    2.1350    1.6206    0.0000 C   0  0  0  0  0  0  0  0  0  0  0  0
   -0.0083   -0.4420    0.0000 C   0  0  0  0  0  0  0  0  0  0  0  0
   -0.7229   -0.8544    0.0000 C   0  0  0  0  0  0  0  0  0  0  0  0
   -0.7229   -1.6796    0.0000 C   0  0  0  0  0  0  0  0  0  0  0  0
   -0.0083   -2.0920    0.0000 C   0  0  0  0  0  0  0  0  0  0  0  0
    0.7060   -1.6796    0.0000 C   0  0  0  0  0  0  0  0  0  0  0  0
    0.7060   -0.8544    0.0000 C   0  0  0  0  0  0  0  0  0  0  0  0
    2.8495    2.0331    0.0000 O   0  0  0  0  0  0  0  0  0  0  0  0
   -2.8664    2.0331    0.0000 O   0  0  0  0  0  0  0  0  0  0  0  0
    1.2375   -0.5700    0.0000 C   0  0  0  0  0  0  0  0  0  0  0  0
    1.2351    0.1048    0.0000 O   0  0  0  0  0  0  0  0  0  0  0  0
    1.4205    2.8581    0.0000 Br  0  0  0  0  0  0  0  0  0  0  0  0
    2.8495    0.3830    0.0000 Br  0  0  0  0  0  0  0  0  0  0  0  0
   -1.4374    2.8581    0.0000 Br  0  0  0  0  0  0  0  0  0  0  0  0
   -2.8664    0.3830    0.0000 Br  0  0  0  0  0  0  0  0  0  0  0  0
    1.9519   -0.9826    0.0000 O   0  0  0  0  0  0  0  0  0  0  0  0
   -1.4374   -0.4420    0.0000 Cl  0  0  0  0  0  0  0  0  0  0  0  0
   -1.4374   -2.0920    0.0000 Cl  0  0  0  0  0  0  0  0  0  0  0  0
   -0.0083   -2.9171    0.0000 Cl  0  0  0  0  0  0  0  0  0  0  0  0
    1.4204   -2.0920    0.0000 Cl  0  0  0  0  0  0  0  0  0  0  0  0
  1  2  2  0
  1  6  1  0
  2  3  1  0
  3  4  2  0
  4  5  1  0
  7  6  1  0
  6  5  2  0
  5  8  1  0
  7 10  1  0
  8  9  2  0
 11 10  2  0
 10  9  1  0
  9 12  1  0
 11 14  1  0
 12 13  2  0
 13 14  1  0
  8 15  1  0
 15 16  2  0
 15 20  1  0
 16 17  1  0
 17 18  2  0
 18 19  1  0
 19 20  2  0
 14 21  2  0
  2 22  1  0
 20 23  1  0
 23 24  2  0
 11 25  1  0
 13 26  1  0
  1 27  1  0
  3 28  1  0
 23 29  1  0
 16 30  1  0
 17 31  1  0
 18 32  1  0
 19 33  1  0
M  CHG  2  22  -1  29  -1
M  END
$$$$
