
     RDKit          2D

  4  3  0  0  0  0  0  0  0  0999 V2000
    0.8250    0.0000    0.0000 I   0  0  0  0  0  0  0  0  0  0  0  0
    0.0000   -0.8250    0.0000 I   0  0  0  0  0  0  0  0  0  0  0  0
    0.0000    0.0000    0.0000 C   0  0  0  0  0  0  0  0  0  0  0  0
   -0.8250    0.0000    0.0000 I   0  0  0  0  0  0  0  0  0  0  0  0
  1  3  1  0
  4  3  1  0
  3  2  1  0
M  END
$$$$
