
     RDKit          2D

 58 64  0  0  0  0  0  0  0  0999 V2000
   -4.0813    1.6925    0.0000 C   0  0  0  0  0  0  0  0  0  0  0  0
   -4.0813    2.5173    0.0000 C   0  0  0  0  0  0  0  0  0  0  0  0
   -4.8739    2.7744    0.0000 C   0  0  0  0  0  0  0  0  0  0  0  0
   -5.3560    2.1102    0.0000 C   0  0  0  0  0  0  0  0  0  0  0  0
   -4.8739    1.4354    0.0000 C   0  0  0  0  0  0  0  0  0  0  0  0
   -3.3743    2.9350    0.0000 O   0  0  0  0  0  0  0  0  0  0  0  0
   -3.3743    1.2854    0.0000 O   0  0  0  0  0  0  0  0  0  0  0  0
   -3.3743    0.4605    0.0000 C   0  0  0  0  0  0  0  0  0  0  0  0
   -2.6565    0.0428    0.0000 N   0  0  0  0  0  0  0  0  0  0  0  0
   -4.0813    0.0428    0.0000 O   0  0  0  0  0  0  0  0  0  0  0  0
   -2.6565   -0.7819    0.0000 C   0  0  0  0  0  0  0  0  0  0  0  0
   -3.3743   -1.1890    0.0000 C   0  0  0  0  0  0  0  0  0  0  0  0
   -3.3743   -2.0138    0.0000 C   0  0  0  0  0  0  0  0  0  0  0  0
   -4.1670   -0.9748    0.0000 C   0  0  0  0  0  0  0  0  0  0  0  0
   -4.0813   -1.6068    0.0000 C   0  0  0  0  0  0  0  0  0  0  0  0
   -1.9388   -1.1890    0.0000 C   0  0  0  0  0  0  0  0  0  0  0  0
   -1.2318   -0.7819    0.0000 N   0  0  0  0  0  0  0  0  0  0  0  0
   -1.9388   -2.0138    0.0000 O   0  0  0  0  0  0  0  0  0  0  0  0
   -0.4712   -1.1140    0.0000 C   0  0  0  0  0  0  0  0  0  0  0  0
    0.0750   -0.5034    0.0000 C   0  0  0  0  0  0  0  0  0  0  0  0
   -0.3321    0.2142    0.0000 C   0  0  0  0  0  0  0  0  0  0  0  0
   -1.1354    0.0428    0.0000 C   0  0  0  0  0  0  0  0  0  0  0  0
    0.2464   -1.5318    0.0000 C   0  0  0  0  0  0  0  0  0  0  0  0
    0.9534   -1.1140    0.0000 N   0  0  0  0  0  0  0  0  0  0  0  0
    0.2464   -2.3566    0.0000 O   0  0  0  0  0  0  0  0  0  0  0  0
    1.6711   -1.5318    0.0000 C   0  0  0  0  0  0  0  0  0  0  0  0
    0.9534   -1.9388    0.0000 C   0  0  0  0  0  0  0  0  0  0  0  0
    1.6711   -2.3566    0.0000 C   0  0  0  0  0  0  0  0  0  0  0  0
    1.0925   -2.9351    0.0000 C   0  0  0  0  0  0  0  0  0  0  0  0
    0.2678   -2.9351    0.0000 F   0  0  0  0  0  0  0  0  0  0  0  0
    1.4997   -3.6528    0.0000 F   0  0  0  0  0  0  0  0  0  0  0  0
    2.3888   -1.1140    0.0000 C   0  0  0  0  0  0  0  0  0  0  0  0
    2.3888   -0.2892    0.0000 O   0  0  0  0  0  0  0  0  0  0  0  0
    3.1064   -1.5318    0.0000 N   0  0  0  0  0  0  0  0  0  0  0  0
    3.8134   -1.1140    0.0000 S   0  0  0  0  0  0  0  0  0  0  0  0
    3.4064   -0.3963    0.0000 O   0  0  0  0  0  0  0  0  0  0  0  0
    4.2312   -0.3963    0.0000 O   0  0  0  0  0  0  0  0  0  0  0  0
    4.5311   -1.5318    0.0000 C   0  0  0  0  0  0  0  0  0  0  0  0
    4.9382   -2.2388    0.0000 C   0  0  0  0  0  0  0  0  0  0  0  0
    5.3560   -1.5318    0.0000 C   0  0  0  0  0  0  0  0  0  0  0  0
    3.7385   -1.7460    0.0000 C   0  0  0  0  0  0  0  0  0  0  0  0
   -2.6565    2.5173    0.0000 C   0  0  0  0  0  0  0  0  0  0  0  0
   -1.9388    2.9350    0.0000 C   0  0  0  0  0  0  0  0  0  0  0  0
   -1.2318    2.5173    0.0000 C   0  0  0  0  0  0  0  0  0  0  0  0
   -0.5141    2.9350    0.0000 C   0  0  0  0  0  0  0  0  0  0  0  0
   -0.9212    3.6528    0.0000 F   0  0  0  0  0  0  0  0  0  0  0  0
   -0.0964    3.6528    0.0000 F   0  0  0  0  0  0  0  0  0  0  0  0
    0.2035    2.5173    0.0000 C   0  0  0  0  0  0  0  0  0  0  0  0
    0.2035    1.6925    0.0000 C   0  0  0  0  0  0  0  0  0  0  0  0
    0.9212    1.2854    0.0000 N   0  0  0  0  0  0  0  0  0  0  0  0
    1.6282    1.6925    0.0000 C   0  0  0  0  0  0  0  0  0  0  0  0
    1.6282    2.5173    0.0000 C   0  0  0  0  0  0  0  0  0  0  0  0
    0.9212    2.9350    0.0000 N   0  0  0  0  0  0  0  0  0  0  0  0
    2.3459    1.2854    0.0000 C   0  0  0  0  0  0  0  0  0  0  0  0
    3.0636    1.6925    0.0000 C   0  0  0  0  0  0  0  0  0  0  0  0
    3.0636    2.5173    0.0000 C   0  0  0  0  0  0  0  0  0  0  0  0
    2.3459    2.9350    0.0000 C   0  0  0  0  0  0  0  0  0  0  0  0
   -0.5141    1.2854    0.0000 O   0  0  0  0  0  0  0  0  0  0  0  0
  1  2  1  0
  1  5  1  6
  1  7  1  0
  2  3  1  1
  2  6  1  0
  3  4  1  0
  4  5  1  0
  6 42  1  0
  7  8  1  0
  8  9  1  0
  8 10  2  0
  9 11  1  0
 11 12  1  6
 11 16  1  0
 12 13  1  0
 12 14  1  0
 12 15  1  0
 16 17  1  0
 16 18  2  0
 17 19  1  0
 17 22  1  0
 19 20  1  0
 19 23  1  1
 21 20  1  6
 21 22  1  0
 21 58  1  0
 23 24  1  0
 23 25  2  0
 26 24  1  1
 26 27  1  0
 26 28  1  0
 26 32  1  0
 27 28  1  0
 28 29  1  6
 29 30  1  0
 29 31  1  0
 32 33  2  0
 32 34  1  0
 34 35  1  0
 35 36  2  0
 35 37  2  0
 35 38  1  0
 38 39  1  0
 38 40  1  0
 38 41  1  0
 39 40  1  0
 42 43  1  0
 43 44  2  0
 44 45  1  0
 45 46  1  0
 45 47  1  0
 45 48  1  0
 48 49  2  0
 48 53  1  0
 49 50  1  0
 49 58  1  0
 50 51  2  0
 51 52  1  0
 51 54  1  0
 52 53  2  0
 52 57  1  0
 54 55  2  0
 55 56  1  0
 56 57  2  0
M  END
$$$$
