
     RDKit          2D

 19 21  0  0  0  0  0  0  0  0999 V2000
   -4.0651    5.9330    0.0000 N   0  0  0  0  0  0  0  0  0  0  0  0
   -3.2805    6.1879    0.0000 C   0  0  0  0  0  0  0  0  0  0  0  0
   -3.2805    7.0129    0.0000 C   0  0  0  0  0  0  0  0  0  0  0  0
   -4.0651    7.2679    0.0000 N   0  0  0  0  0  0  0  0  0  0  0  0
   -4.5500    6.6004    0.0000 C   0  0  0  0  0  0  0  0  0  0  0  0
   -2.5660    7.4254    0.0000 C   0  0  0  0  0  0  0  0  0  0  0  0
   -1.8516    7.0129    0.0000 N   0  0  0  0  0  0  0  0  0  0  0  0
   -1.8516    6.1879    0.0000 C   0  0  0  0  0  0  0  0  0  0  0  0
   -2.5660    5.7754    0.0000 N   0  0  0  0  0  0  0  0  0  0  0  0
   -2.5660    8.2504    0.0000 O   0  0  0  0  0  0  0  0  0  0  0  0
   -4.3201    5.1484    0.0000 C   0  0  0  0  0  0  0  0  0  0  0  0
   -3.8351    4.4809    0.0000 O   0  0  0  0  0  0  0  0  0  0  0  0
   -4.3201    3.8135    0.0000 C   0  0  0  0  0  0  0  0  0  0  0  0
   -4.0651    3.0289    0.0000 C   0  0  0  0  0  0  0  0  0  0  0  0
   -3.2581    2.8573    0.0000 O   0  0  0  0  0  0  0  0  0  0  0  0
   -5.1047    4.0684    0.0000 C   0  0  0  0  0  0  0  0  0  0  0  0
   -5.1047    4.8934    0.0000 C   0  0  0  0  0  0  0  0  0  0  0  0
   -5.7721    5.3784    0.0000 O   0  0  0  0  0  0  0  0  0  0  0  0
   -5.7721    3.5835    0.0000 O   0  0  0  0  0  0  0  0  0  0  0  0
  1  2  1  0
  2  3  2  0
  3  4  1  0
  4  5  2  0
  1  5  1  0
  3  6  1  0
  6  7  1  0
  7  8  1  0
  8  9  2  0
  2  9  1  0
  6 10  2  0
 11  1  1  6
 11 12  1  0
 12 13  1  0
 13 14  1  6
 14 15  1  0
 13 16  1  0
 16 17  1  0
 11 17  1  0
 17 18  1  1
 16 19  1  1
M  END
$$$$
