
     RDKit          2D

 57 60  0  0  0  0  0  0  0  0999 V2000
   -0.5844    3.5037    0.0000 C   0  0  0  0  0  0  0  0  0  0  0  0
   -0.5913    4.3441    0.0000 C   0  0  0  0  0  0  0  0  0  0  0  0
    0.1310    3.9205    0.0000 O   0  0  0  0  0  0  0  0  0  0  0  0
   -0.5844    2.6771    0.0000 C   0  0  0  0  0  0  0  0  0  0  0  0
   -1.2998    3.9205    0.0000 C   0  0  0  0  0  0  0  0  0  0  0  0
    0.1345    2.2707    0.0000 C   0  0  0  0  0  0  0  0  0  0  0  0
   -2.0118    3.5037    0.0000 C   0  0  0  0  0  0  0  0  0  0  0  0
   -1.2998    4.7401    0.0000 O   0  0  0  0  0  0  0  0  0  0  0  0
    0.1345    1.4441    0.0000 C   0  0  0  0  0  0  0  0  0  0  0  0
    0.8430    2.6806    0.0000 C   0  0  0  0  0  0  0  0  0  0  0  0
   -2.0118    2.6771    0.0000 C   0  0  0  0  0  0  0  0  0  0  0  0
   -2.7273    3.9205    0.0000 C   0  0  0  0  0  0  0  0  0  0  0  0
   -0.5844    1.0308    0.0000 C   0  0  0  0  0  0  0  0  0  0  0  0
    0.8395    1.0308    0.0000 O   0  0  0  0  0  0  0  0  0  0  0  0
   -2.7273    2.2707    0.0000 C   0  0  0  0  0  0  0  0  0  0  0  0
   -2.9646    3.1753    0.0000 O   0  0  0  0  0  0  0  0  0  0  0  0
   -0.5844    0.2077    0.0000 C   0  0  0  0  0  0  0  0  0  0  0  0
   -1.2998    1.4441    0.0000 C   0  0  0  0  0  0  0  0  0  0  0  0
   -2.7273    1.4441    0.0000 C   0  0  0  0  0  0  0  0  0  0  0  0
   -3.4392    2.6806    0.0000 C   0  0  0  0  0  0  0  0  0  0  0  0
    0.1345   -0.2021    0.0000 O   0  0  0  0  0  0  0  0  0  0  0  0
   -1.2998   -0.2021    0.0000 C   0  0  0  0  0  0  0  0  0  0  0  0
   -2.0118    1.0308    0.0000 O   0  0  0  0  0  0  0  0  0  0  0  0
   -3.4428    1.0273    0.0000 C   0  0  0  0  0  0  0  0  0  0  0  0
   -2.0118    0.2077    0.0000 C   0  0  0  0  0  0  0  0  0  0  0  0
   -1.2998   -1.0253    0.0000 C   0  0  0  0  0  0  0  0  0  0  0  0
   -2.7273   -0.2021    0.0000 O   0  0  0  0  0  0  0  0  0  0  0  0
    0.1329   -1.0253    0.0000 C   0  0  0  0  0  0  0  0  0  0  0  0
   -0.5864   -1.4393    0.0000 C   0  0  0  0  0  0  0  0  0  0  0  0
    0.8432   -1.4378    0.0000 O   0  0  0  0  0  0  0  0  0  0  0  0
   -0.5835   -2.2591    0.0000 C   0  0  0  0  0  0  0  0  0  0  0  0
    0.8432   -2.2594    0.0000 C   0  0  0  0  0  0  0  0  0  0  0  0
    0.1238   -2.6735    0.0000 C   0  0  0  0  0  0  0  0  0  0  0  0
   -1.2950   -2.6727    0.0000 O   0  0  0  0  0  0  0  0  0  0  0  0
    1.5536   -2.6720    0.0000 C   0  0  0  0  0  0  0  0  0  0  0  0
    0.1268   -3.4933    0.0000 O   0  0  0  0  0  0  0  0  0  0  0  0
   -2.0084   -2.2618    0.0000 C   0  0  0  0  0  0  0  0  0  0  0  0
    1.5537    0.6215    0.0000 C   0  0  0  0  0  0  0  0  0  0  0  0
    2.2648    1.0347    0.0000 C   0  0  0  0  0  0  0  0  0  0  0  0
    1.5567   -0.2010    0.0000 O   0  0  0  0  0  0  0  0  0  0  0  0
    2.9791    0.6252    0.0000 C   0  0  0  0  0  0  0  0  0  0  0  0
    2.2594    1.8668    0.0000 O   0  0  0  0  0  0  0  0  0  0  0  0
    2.2678   -0.6086    0.0000 C   0  0  0  0  0  0  0  0  0  0  0  0
    2.9791   -0.1955    0.0000 C   0  0  0  0  0  0  0  0  0  0  0  0
    3.6902    1.0383    0.0000 N   0  0  0  0  0  0  0  0  0  0  0  0
    3.6812    1.8644    0.0000 C   0  0  0  0  0  0  0  0  0  0  0  0
    4.4014    0.6306    0.0000 C   0  0  0  0  0  0  0  0  0  0  0  0
    2.2701   -1.4317    0.0000 C   0  0  0  0  0  0  0  0  0  0  0  0
    2.2594    2.6963    0.0000 C   0  0  0  0  0  0  0  0  0  0  0  0
    1.5410    3.1110    0.0000 C   0  0  0  0  0  0  0  0  0  0  0  0
    2.9778    3.1110    0.0000 O   0  0  0  0  0  0  0  0  0  0  0  0
   -0.5899   -3.9106    0.0000 C   0  0  0  0  0  0  0  0  0  0  0  0
   -0.5870   -4.7401    0.0000 O   0  0  0  0  0  0  0  0  0  0  0  0
   -1.3098   -3.4985    0.0000 C   0  0  0  0  0  0  0  0  0  0  0  0
   -3.6831    3.5901    0.0000 C   0  0  0  0  0  0  0  0  0  0  0  0
   -4.4014    3.1753    0.0000 C   0  0  0  0  0  0  0  0  0  0  0  0
   -3.6831    4.4195    0.0000 O   0  0  0  0  0  0  0  0  0  0  0  0
  1  2  1  6
  1  3  1  0
  1  4  1  0
  1  5  1  0
  4  6  1  0
  5  7  1  0
  5  8  2  0
  6  9  1  0
  6 10  1  6
  7 11  1  0
  7 12  1  1
  9 13  1  0
  9 14  1  6
 11 15  1  0
 11 16  1  1
 13 17  1  0
 13 18  1  6
 15 19  1  0
 15 20  1  6
 17 21  1  6
 17 22  1  0
 19 23  1  0
 19 24  1  6
 22 25  1  0
 22 26  1  1
 25 27  2  0
  2  3  1  0
 23 25  1  0
 28 29  1  0
 28 30  1  0
 29 31  1  0
 30 32  1  0
 31 33  1  0
 31 34  1  1
 32 35  1  1
 33 36  1  6
 34 37  1  0
 32 33  1  0
 28 21  1  6
 38 39  1  0
 38 40  1  0
 39 41  1  0
 39 42  1  6
 40 43  1  0
 41 44  1  0
 41 45  1  1
 45 46  1  0
 45 47  1  0
 43 44  1  0
 43 48  1  1
 38 14  1  1
 42 49  1  0
 49 50  1  0
 49 51  2  0
 36 52  1  0
 52 53  2  0
 52 54  1  0
 16 55  1  0
 55 56  1  0
 55 57  2  0
M  END
$$$$
