
     RDKit          2D

 16 15  0  0  0  0  0  0  0  0999 V2000
    3.7051   -0.0773    0.0000 O   0  0  0  0  0  0  0  0  0  0  0  0
    4.4195    0.3352    0.0000 C   0  0  0  0  0  0  0  0  0  0  0  0
    5.1340   -0.0773    0.0000 C   0  0  0  0  0  0  0  0  0  0  0  0
    5.1340   -0.9023    0.0000 O   0  0  0  0  0  0  0  0  0  0  0  0
    5.8485    0.3352    0.0000 C   0  0  0  0  0  0  0  0  0  0  0  0
    5.8485    1.1602    0.0000 O   0  0  0  0  0  0  0  0  0  0  0  0
    6.5629   -0.0773    0.0000 C   0  0  0  0  0  0  0  0  0  0  0  0
    6.5629   -0.9023    0.0000 O   0  0  0  0  0  0  0  0  0  0  0  0
    7.2774    0.3352    0.0000 C   0  0  0  0  0  0  0  0  0  0  0  0
    7.2774    1.1602    0.0000 O   0  0  0  0  0  0  0  0  0  0  0  0
    7.9919   -0.0773    0.0000 C   0  0  0  0  0  0  0  0  0  0  0  0
    7.9919   -0.9023    0.0000 O   0  0  0  0  0  0  0  0  0  0  0  0
    8.7064    0.3352    0.0000 O   0  0  0  0  0  0  0  0  0  0  0  0
    9.4208   -0.0773    0.0000 Al  0  0  0  0  0  6  0  0  0  0  0  0
   10.1353    0.3352    0.0000 O   0  0  0  0  0  0  0  0  0  0  0  0
    9.4208   -0.9023    0.0000 O   0  0  0  0  0  0  0  0  0  0  0  0
  1  2  1  0
  2  3  1  0
  3  4  1  6
  3  5  1  0
  5  6  1  1
  5  7  1  0
  7  8  1  1
  7  9  1  0
  9 10  1  1
  9 11  1  0
 11 12  2  0
 11 13  1  0
 13 14  1  0
 14 15  1  0
 14 16  1  0
M  END
$$$$
