
     RDKit          2D

 30 34  0  0  1  0  0  0  0  0999 V2000
    4.3228    1.7357    0.0000 C   0  0  0  0  0  0  0  0  0  0  0  0
    3.9629    0.9934    0.0000 C   0  0  0  0  0  0  0  0  0  0  0  0
    3.4311    1.6241    0.0000 C   0  0  0  0  0  0  0  0  0  0  0  0
    2.6190    1.4789    0.0000 C   0  0  0  0  0  0  0  0  0  0  0  0
    2.3387    0.7029    0.0000 C   0  0  0  0  0  0  0  0  0  0  0  0
    2.8705    0.0722    0.0000 C   0  0  0  0  0  0  0  0  0  0  0  0
    3.6826    0.2174    0.0000 C   0  0  0  0  0  0  0  0  0  0  0  0
    4.3340   -0.2889    0.0000 C   0  0  0  0  0  0  0  0  0  0  0  0
    5.0168    0.1741    0.0000 C   0  0  0  0  0  0  0  0  0  0  0  0
    4.7875    0.9666    0.0000 C   0  0  0  0  0  0  0  0  0  0  0  0
    5.2939    1.6179    0.0000 O   0  0  0  0  0  0  0  0  0  0  0  0
    6.1111    1.5050    0.0000 C   0  0  0  0  0  0  0  0  0  0  0  0
    6.4220    0.7409    0.0000 O   0  0  0  0  0  0  0  0  0  0  0  0
    6.6175    2.1564    0.0000 C   0  0  0  0  0  0  0  0  0  0  0  0
    7.4347    2.0435    0.0000 C   0  0  0  0  0  0  0  0  0  0  0  0
    7.9411    2.6948    0.0000 C   0  0  0  0  0  0  0  0  0  0  0  0
    7.7118    3.4873    0.0000 C   0  0  0  0  0  0  0  0  0  0  0  0
    8.3946    3.9503    0.0000 C   0  0  0  0  0  0  0  0  0  0  0  0
    9.0459    3.4440    0.0000 C   0  0  0  0  0  0  0  0  0  0  0  0
    8.7656    2.6680    0.0000 C   0  0  0  0  0  0  0  0  0  0  0  0
    2.5902   -0.7037    0.0000 C   0  0  0  0  0  0  0  0  0  0  0  0
    1.7781   -0.8489    0.0000 C   0  0  0  0  0  0  0  0  0  0  0  0
    1.2463   -0.2182    0.0000 C   0  0  0  0  0  0  0  0  0  0  0  0
    0.4342   -0.3634    0.0000 C   0  0  0  0  0  0  0  0  0  0  0  0
   -0.0976    0.2673    0.0000 C   0  0  0  0  0  0  0  0  0  0  0  0
   -0.9098    0.1221    0.0000 O   0  0  0  0  0  0  0  0  0  0  0  0
    0.1827    1.0432    0.0000 C   0  0  0  0  0  0  0  0  0  0  0  0
    0.9948    1.1884    0.0000 C   0  0  0  0  0  0  0  0  0  0  0  0
    1.5266    0.5577    0.0000 C   0  0  0  0  0  0  0  0  0  0  0  0
    1.8069    1.3336    0.0000 C   0  0  0  0  0  0  0  0  0  0  0  0
  2  1  1  1
  2  3  1  0
  3  4  1  0
  5  4  1  1
  5  6  1  0
  6  7  1  0
  2  7  1  0
  7  8  1  1
  8  9  1  0
  9 10  1  0
  2 10  1  0
 10 11  1  1
 11 12  1  0
 12 13  2  0
 12 14  1  0
 14 15  1  0
 15 16  1  0
 16 17  1  0
 17 18  1  0
 18 19  1  0
 19 20  1  0
 16 20  1  0
  6 21  1  6
 21 22  1  0
 22 23  1  0
 23 24  2  0
 24 25  1  0
 25 26  2  0
 25 27  1  0
 27 28  1  0
 28 29  1  0
  5 29  1  0
 23 29  1  0
 29 30  1  1
M  END
$$$$
