
     RDKit          2D

  6  5  0  0  0  0  0  0  0  0999 V2000
    4.3607    1.0717    0.0000 C   0  0  0  0  0  0  0  0  0  0  0  0
    4.7732    0.3572    0.0000 C   0  0  0  0  0  0  0  0  0  0  0  0
    4.3607   -0.3572    0.0000 C   0  0  0  0  0  0  0  0  0  0  0  0
    5.5982    0.3572    0.0000 O   0  0  0  0  0  0  0  0  0  0  0  0
    4.7732   -1.0717    0.0000 O   0  0  0  0  0  0  0  0  0  0  0  0
    3.5357   -0.3572    0.0000 O   0  0  0  0  0  0  0  0  0  0  0  0
  2  1  1  0
  3  2  1  0
  4  2  1  0
  5  3  2  0
  6  3  1  0
M  CHG  1   6  -1
M  END
$$$$
