
     RDKit          2D

 22 25  0  0  0  0  0  0  0  0999 V2000
    0.0972    2.2544    0.0000 C   0  0  0  0  0  0  0  0  0  0  0  0
   -0.6460    1.8964    0.0000 C   0  0  0  0  0  0  0  0  0  0  0  0
   -0.8295    1.0922    0.0000 C   0  0  0  0  0  0  0  0  0  0  0  0
   -0.3152    0.4471    0.0000 C   0  0  0  0  0  0  0  0  0  0  0  0
    0.5098    0.4471    0.0000 C   0  0  0  0  0  0  0  0  0  0  0  0
    1.0241    1.0922    0.0000 O   0  0  0  0  0  0  0  0  0  0  0  0
    0.8405    1.8964    0.0000 C   0  0  0  0  0  0  0  0  0  0  0  0
   -1.6454    0.9692    0.0000 C   0  0  0  0  0  0  0  0  0  0  0  0
   -1.9468    0.2013    0.0000 C   0  0  0  0  0  0  0  0  0  0  0  0
   -1.4325   -0.4438    0.0000 C   0  0  0  0  0  0  0  0  0  0  0  0
   -0.7277   -0.2673    0.0000 C   0  0  0  0  0  0  0  0  0  0  0  0
   -0.3152   -0.9818    0.0000 C   0  0  0  0  0  0  0  0  0  0  0  0
    0.5098   -0.9818    0.0000 C   0  0  0  0  0  0  0  0  0  0  0  0
    0.9222   -0.2673    0.0000 O   0  0  0  0  0  0  0  0  0  0  0  0
   -2.1596    1.6143    0.0000 C   0  0  0  0  0  0  0  0  0  0  0  0
    1.4856    2.4108    0.0000 C   0  0  0  0  0  0  0  0  0  0  0  0
   -0.3152    1.2721    0.0000 O   0  0  0  0  0  0  0  0  0  0  0  0
    0.0436    1.6829    0.0000 O   0  0  0  0  0  0  0  0  0  0  0  0
    0.9222   -1.6962    0.0000 O   0  0  0  0  0  0  0  0  0  0  0  0
   -0.7277   -1.6962    0.0000 C   0  0  0  0  0  0  0  0  0  0  0  0
    1.7472   -1.6962    0.0000 C   0  0  0  0  0  0  0  0  0  0  0  0
    2.1596   -2.4108    0.0000 C   0  0  0  0  0  0  0  0  0  0  0  0
  1  2  1  0
  7  1  1  0
  3  2  1  6
  5  6  1  0
  6  7  1  0
  4  3  1  0
  3  8  1  0
  8  9  1  0
  9 10  1  0
  4 11  1  0
  5  4  1  0
  5 14  1  1
 11 12  1  0
 12 13  1  0
 13 14  1  0
 11 10  1  6
  8 15  1  1
  7 16  1  1
  4 17  1  1
  7 18  1  0
 18 17  1  0
 13 19  1  6
 12 20  1  6
 19 21  1  0
 21 22  1  0
M  END
$$$$
