72145
     RDKit          2D

 36 40  0  0  1  0  0  0  0  0999 V2000
    6.4930    0.2116    0.0000 O   0  0  0  0  0  0  0  0  0  0  0  0
    7.2661   -0.2907    0.0000 O   0  0  0  0  0  0  0  0  0  0  0  0
    8.7612   -1.2767    0.0000 O   0  0  0  0  0  0  0  0  0  0  0  0
    8.7612   -2.6046    0.0000 O   0  0  0  0  0  0  0  0  0  0  0  0
    3.8396   -0.5771    0.0000 O   0  0  0  0  0  0  0  0  0  0  0  0
    3.0030    0.5257    0.0000 O   0  0  0  0  0  0  0  0  0  0  0  0
    6.7456    1.6552    0.0000 O   0  0  0  0  0  0  0  0  0  0  0  0
    3.5338    2.0881    0.0000 O   0  0  0  0  0  0  0  0  0  0  0  0
    5.0666   -1.5111    0.0000 N   0  0  0  0  0  0  0  0  0  0  0  0
    5.1521    2.4097    0.0000 N   0  0  0  0  0  0  0  0  0  0  0  0
    5.8140   -1.0871    0.0000 C   0  0  0  0  0  0  0  0  0  0  0  0
    5.8236   -0.2621    0.0000 C   0  0  0  0  0  0  0  0  0  0  0  0
    6.5516   -1.5282    0.0000 C   0  0  0  0  0  0  0  0  0  0  0  0
    5.0666   -2.3704    0.0000 C   0  0  0  0  0  0  0  0  0  0  0  0
    6.5516   -2.3532    0.0000 C   0  0  0  0  0  0  0  0  0  0  0  0
    5.8140   -2.7943    0.0000 C   0  0  0  0  0  0  0  0  0  0  0  0
    5.1653    0.2269    0.0000 C   0  0  0  0  0  0  0  0  0  0  0  0
    7.2661   -1.1157    0.0000 C   0  0  0  0  0  0  0  0  0  0  0  0
    5.4306    1.0081    0.0000 C   0  0  0  0  0  0  0  0  0  0  0  0
    4.2546   -1.3646    0.0000 C   0  0  0  0  0  0  0  0  0  0  0  0
    7.2661   -2.7657    0.0000 C   0  0  0  0  0  0  0  0  0  0  0  0
    4.3560    0.0661    0.0000 C   0  0  0  0  0  0  0  0  0  0  0  0
    7.9805   -1.5282    0.0000 C   0  0  0  0  0  0  0  0  0  0  0  0
    6.2506    0.9951    0.0000 C   0  0  0  0  0  0  0  0  0  0  0  0
    7.9805   -2.3532    0.0000 C   0  0  0  0  0  0  0  0  0  0  0  0
    4.8868    1.6285    0.0000 C   0  0  0  0  0  0  0  0  0  0  0  0
    3.8122    0.6865    0.0000 C   0  0  0  0  0  0  0  0  0  0  0  0
    4.0776    1.4677    0.0000 C   0  0  0  0  0  0  0  0  0  0  0  0
    9.2426   -1.9407    0.0000 C   0  0  0  0  0  0  0  0  0  0  0  0
    7.9805    0.1217    0.0000 C   0  0  0  0  0  0  0  0  0  0  0  0
    3.0241   -0.4514    0.0000 C   0  0  0  0  0  0  0  0  0  0  0  0
    2.4592    1.1461    0.0000 C   0  0  0  0  0  0  0  0  0  0  0  0
    2.7246    1.9273    0.0000 C   0  0  0  0  0  0  0  0  0  0  0  0
    2.5077   -1.0947    0.0000 C   0  0  0  0  0  0  0  0  0  0  0  0
    1.6500    0.9854    0.0000 C   0  0  0  0  0  0  0  0  0  0  0  0
    2.1807    2.5477    0.0000 C   0  0  0  0  0  0  0  0  0  0  0  0
  1 12  1  0
  1 24  1  0
  2 18  1  0
  2 30  1  0
  3 23  1  0
  3 29  1  0
  4 25  1  0
  4 29  1  0
  5 22  1  0
  5 31  1  0
  6 27  1  0
  6 32  1  0
  7 24  2  0
  8 28  1  0
  8 33  1  0
  9 11  1  0
  9 14  1  0
  9 20  1  0
 10 26  1  0
 11 12  1  0
 11 13  1  0
 12 17  1  0
 13 15  2  0
 13 18  1  0
 14 16  1  0
 15 16  1  0
 15 21  1  0
 17 19  2  0
 17 22  1  0
 18 23  2  0
 19 24  1  0
 19 26  1  0
 21 25  2  0
 22 27  2  0
 23 25  1  0
 26 28  2  0
 27 28  1  0
 31 34  1  0
 32 35  1  0
 33 36  1  0
M  END
$$$$
