
     RDKit          2D

 29 31  0  0  0  0  0  0  0  0999 V2000
    0.8288    1.1345    0.0000 C   0  0  0  0  0  0  0  0  0  0  0  0
    3.3239    4.9368    0.0000 C   0  0  0  0  0  0  0  0  0  0  0  0
   -0.5215    3.8895    0.0000 C   0  0  0  0  0  0  0  0  0  0  0  0
   -1.6776    3.0496    0.0000 C   0  0  0  0  0  0  0  0  0  0  0  0
   -1.0064    4.5569    0.0000 C   0  0  0  0  0  0  0  0  0  0  0  0
   -2.1625    3.7170    0.0000 C   0  0  0  0  0  0  0  0  0  0  0  0
    1.1579    4.6668    0.0000 C   0  0  0  0  0  0  0  0  0  0  0  0
    0.6059    4.0537    0.0000 C   0  0  0  0  0  0  0  0  0  0  0  0
    2.2198    3.7106    0.0000 C   0  0  0  0  0  0  0  0  0  0  0  0
    2.4685    1.8646    0.0000 C   0  0  0  0  0  0  0  0  0  0  0  0
    4.6119    2.2771    0.0000 C   0  0  0  0  0  0  0  0  0  0  0  0
    1.0004    1.9415    0.0000 C   0  0  0  0  0  0  0  0  0  0  0  0
   -0.8571    3.1358    0.0000 C   0  0  0  0  0  0  0  0  0  0  0  0
   -1.8269    4.4707    0.0000 C   0  0  0  0  0  0  0  0  0  0  0  0
    1.9649    4.4953    0.0000 C   0  0  0  0  0  0  0  0  0  0  0  0
    1.7540    2.2771    0.0000 C   0  0  0  0  0  0  0  0  0  0  0  0
    1.6678    3.0975    0.0000 C   0  0  0  0  0  0  0  0  0  0  0  0
    0.8608    3.2691    0.0000 C   0  0  0  0  0  0  0  0  0  0  0  0
    5.3264    1.8646    0.0000 C   0  0  0  0  0  0  0  0  0  0  0  0
    3.1830    2.2771    0.0000 C   0  0  0  0  0  0  0  0  0  0  0  0
   -0.3722    2.4684    0.0000 C   0  0  0  0  0  0  0  0  0  0  0  0
   -2.3118    5.1381    0.0000 Cl  0  0  0  0  0  0  0  0  0  0  0  0
    0.4483    2.5546    0.0000 N   0  0  0  0  0  0  0  0  0  0  0  0
    6.0409    2.2771    0.0000 O   0  0  0  0  0  0  0  0  0  0  0  0
    5.3264    1.0396    0.0000 O   0  0  0  0  0  0  0  0  0  0  0  0
    3.1830    3.1021    0.0000 O   0  0  0  0  0  0  0  0  0  0  0  0
   -0.7077    1.7147    0.0000 O   0  0  0  0  0  0  0  0  0  0  0  0
    2.5169    5.1084    0.0000 O   0  0  0  0  0  0  0  0  0  0  0  0
    3.8974    1.8646    0.0000 O   0  0  0  0  0  0  0  0  0  0  0  0
  5  3  2  0
  6  4  1  0
  8  7  2  0
 12  1  1  0
 13  3  1  0
 13  4  2  0
 14  5  1  0
 14  6  2  0
 15  7  1  0
 15  9  2  0
 16 10  1  0
 16 12  2  0
 17  9  1  0
 17 16  1  0
 18  8  1  0
 18 17  2  0
 19 11  1  0
 20 10  1  0
 21 13  1  0
 22 14  1  0
 23 12  1  0
 23 18  1  0
 23 21  1  0
 24 19  2  0
 25 19  1  0
 26 20  2  0
 27 21  2  0
 28  2  1  0
 28 15  1  0
 29 11  1  0
 29 20  1  0
M  END
$$$$
