
     RDKit          2D

 28 32  0  0  1  0  0  0  0  0999 V2000
    2.0307    1.7357    0.0000 C   0  0  0  0  0  0  0  0  0  0  0  0
    9.9799   -1.0895    0.0000 C   0  0  0  0  0  0  0  0  0  0  0  0
    9.6996   -0.3136    0.0000 C   0  0  0  0  0  0  0  0  0  0  0  0
    9.4481   -1.7202    0.0000 C   0  0  0  0  0  0  0  0  0  0  0  0
    8.8875   -0.1684    0.0000 C   0  0  0  0  0  0  0  0  0  0  0  0
    8.6360   -1.5750    0.0000 C   0  0  0  0  0  0  0  0  0  0  0  0
    4.5754   -0.8489    0.0000 C   0  0  0  0  0  0  0  0  0  0  0  0
    6.1708    1.0432    0.0000 C   0  0  0  0  0  0  0  0  0  0  0  0
    3.7633   -0.7037    0.0000 C   0  0  0  0  0  0  0  0  0  0  0  0
    5.3587    1.1884    0.0000 C   0  0  0  0  0  0  0  0  0  0  0  0
    2.0195   -0.2889    0.0000 C   0  0  0  0  0  0  0  0  0  0  0  0
    1.3367    0.1741    0.0000 C   0  0  0  0  0  0  0  0  0  0  0  0
    3.7345    1.4789    0.0000 C   0  0  0  0  0  0  0  0  0  0  0  0
    2.9224    1.6241    0.0000 C   0  0  0  0  0  0  0  0  0  0  0  0
    5.9193   -0.3634    0.0000 C   0  0  0  0  0  0  0  0  0  0  0  0
    8.3557   -0.7991    0.0000 C   0  0  0  0  0  0  0  0  0  0  0  0
    5.1072   -0.2182    0.0000 C   0  0  0  0  0  0  0  0  0  0  0  0
    6.4511    0.2673    0.0000 C   0  0  0  0  0  0  0  0  0  0  0  0
    4.8269    0.5577    0.0000 C   0  0  0  0  0  0  0  0  0  0  0  0
    4.0148    0.7029    0.0000 C   0  0  0  0  0  0  0  0  0  0  0  0
    3.4830    0.0722    0.0000 C   0  0  0  0  0  0  0  0  0  0  0  0
    2.6708    0.2174    0.0000 C   0  0  0  0  0  0  0  0  0  0  0  0
    1.5660    0.9666    0.0000 C   0  0  0  0  0  0  0  0  0  0  0  0
    7.5435   -0.6539    0.0000 C   0  0  0  0  0  0  0  0  0  0  0  0
    2.3905    0.9934    0.0000 C   0  0  0  0  0  0  0  0  0  0  0  0
    1.0596    1.6179    0.0000 O   0  0  0  0  0  0  0  0  0  0  0  0
    7.0117   -1.2846    0.0000 O   0  0  0  0  0  0  0  0  0  0  0  0
    7.2632    0.1221    0.0000 O   0  0  0  0  0  0  0  0  0  0  0  0
  3  2  2  0
  4  2  1  0
  5  3  1  0
  6  4  2  0
  9  7  1  0
 10  8  1  0
 12 11  1  0
 14 13  1  0
 16  5  2  0
 16  6  1  0
 17  7  1  0
 17 15  2  0
 18  8  2  0
 18 15  1  0
 19 10  2  0
 19 17  1  0
 20 13  1  6
 20 19  1  0
 21  9  1  1
 21 20  1  0
 22 11  1  6
 22 21  1  0
 23 12  1  0
 24 16  1  0
 25  1  1  6
 25 14  1  0
 25 22  1  0
 25 23  1  0
 23 26  1  6
 27 24  2  0
 28 18  1  0
 28 24  1  0
M  END
$$$$
