
     RDKit          2D

 12 12  0  0  0  0  0  0  0  0999 V2000
   -1.1785   -1.1892    0.0000 C   0  0  0  0  0  0  0  0  0  0  0  0
   -1.1785   -0.3642    0.0000 C   0  0  0  0  0  0  0  0  0  0  0  0
   -1.8930    0.0482    0.0000 C   0  0  0  0  0  0  0  0  0  0  0  0
   -1.8930    0.8732    0.0000 C   0  0  0  0  0  0  0  0  0  0  0  0
   -1.1785    1.2857    0.0000 C   0  0  0  0  0  0  0  0  0  0  0  0
   -0.4641    0.8732    0.0000 C   0  0  0  0  0  0  0  0  0  0  0  0
   -0.4641    0.0482    0.0000 C   0  0  0  0  0  0  0  0  0  0  0  0
   -1.5658    2.0142    0.0000 C   0  0  0  0  0  0  0  0  0  0  0  0
   -0.7912    2.0142    0.0000 O   0  0  0  0  0  0  0  0  0  0  0  0
   -1.1785   -2.0142    0.0000 C   0  0  0  0  0  0  0  0  0  0  0  0
   -2.0035   -1.1892    0.0000 C   0  0  0  0  0  0  0  0  0  0  0  0
   -0.3535   -1.1892    0.0000 O   0  0  0  0  0  0  0  0  0  0  0  0
  2  1  1  6
  2  3  1  0
  3  4  1  0
  4  5  1  0
  5  6  1  0
  6  7  1  0
  2  7  1  0
  5  8  1  1
  5  9  1  0
  1 10  1  0
  1 11  1  0
  1 12  1  0
M  END
$$$$
