
     RDKit          2D

 37 42  0  0  0  0  0  0  0  0999 V2000
    1.4289    0.2062    0.0000 C   0  0  0  0  0  0  0  0  0  0  0  0
   -0.7144   -4.3312    0.0000 C   0  0  0  0  0  0  0  0  0  0  0  0
    0.0000    4.3312    0.0000 C   0  0  0  0  0  0  0  0  0  0  0  0
   -0.7144   -3.5062    0.0000 C   0  0  0  0  0  0  0  0  0  0  0  0
    0.7144    3.9187    0.0000 C   0  0  0  0  0  0  0  0  0  0  0  0
   -2.1434   -1.8562    0.0000 C   0  0  0  0  0  0  0  0  0  0  0  0
    2.8578    4.3312    0.0000 C   0  0  0  0  0  0  0  0  0  0  0  0
   -2.8578   -2.2687    0.0000 C   0  0  0  0  0  0  0  0  0  0  0  0
    2.8578    5.1562    0.0000 C   0  0  0  0  0  0  0  0  0  0  0  0
    1.4289   -0.6187    0.0000 C   0  0  0  0  0  0  0  0  0  0  0  0
    2.1434    0.6187    0.0000 C   0  0  0  0  0  0  0  0  0  0  0  0
    0.0000   -0.6187    0.0000 C   0  0  0  0  0  0  0  0  0  0  0  0
    0.7144   -1.8562    0.0000 C   0  0  0  0  0  0  0  0  0  0  0  0
    2.8578    1.8562    0.0000 C   0  0  0  0  0  0  0  0  0  0  0  0
    1.4289    1.8562    0.0000 C   0  0  0  0  0  0  0  0  0  0  0  0
   -0.7144   -1.0312    0.0000 C   0  0  0  0  0  0  0  0  0  0  0  0
    0.0000   -2.2687    0.0000 C   0  0  0  0  0  0  0  0  0  0  0  0
    2.8578    2.6812    0.0000 C   0  0  0  0  0  0  0  0  0  0  0  0
    1.4289    2.6812    0.0000 C   0  0  0  0  0  0  0  0  0  0  0  0
   -2.1434   -4.3312    0.0000 C   0  0  0  0  0  0  0  0  0  0  0  0
    0.7144    5.5687    0.0000 C   0  0  0  0  0  0  0  0  0  0  0  0
   -1.4289   -4.7437    0.0000 C   0  0  0  0  0  0  0  0  0  0  0  0
    0.0000    5.1562    0.0000 C   0  0  0  0  0  0  0  0  0  0  0  0
   -1.4289   -3.0937    0.0000 C   0  0  0  0  0  0  0  0  0  0  0  0
    1.4289    4.3312    0.0000 C   0  0  0  0  0  0  0  0  0  0  0  0
   -2.1434   -3.5062    0.0000 C   0  0  0  0  0  0  0  0  0  0  0  0
    1.4289    5.1562    0.0000 C   0  0  0  0  0  0  0  0  0  0  0  0
   -1.4289   -2.2687    0.0000 C   0  0  0  0  0  0  0  0  0  0  0  0
    2.1434    3.9187    0.0000 C   0  0  0  0  0  0  0  0  0  0  0  0
   -1.4289   -5.5687    0.0000 Cl  0  0  0  0  0  0  0  0  0  0  0  0
   -0.7144    5.5687    0.0000 Cl  0  0  0  0  0  0  0  0  0  0  0  0
   -2.8578   -3.0937    0.0000 N   0  0  0  0  0  0  0  0  0  0  0  0
    2.1434    5.5687    0.0000 N   0  0  0  0  0  0  0  0  0  0  0  0
    0.7144   -1.0312    0.0000 N   0  0  0  0  0  0  0  0  0  0  0  0
    2.1434    1.4437    0.0000 N   0  0  0  0  0  0  0  0  0  0  0  0
   -0.7144   -1.8562    0.0000 N   0  0  0  0  0  0  0  0  0  0  0  0
    2.1434    3.0937    0.0000 N   0  0  0  0  0  0  0  0  0  0  0  0
  4  2  2  0
  5  3  2  0
  8  6  1  0
  9  7  1  0
 10  1  1  0
 11  1  1  0
 16 12  1  0
 17 13  1  0
 18 14  1  0
 19 15  1  0
 22  2  1  0
 22 20  2  0
 23  3  1  0
 23 21  2  0
 24  4  1  0
 25  5  1  0
 26 20  1  0
 26 24  2  0
 27 21  1  0
 27 25  2  0
 28  6  2  0
 28 24  1  0
 29  7  2  0
 29 25  1  0
 30 22  1  0
 31 23  1  0
 32  8  2  0
 32 26  1  0
 33  9  2  0
 33 27  1  0
 34 10  1  0
 34 12  1  0
 34 13  1  0
 35 11  1  0
 35 14  1  0
 35 15  1  0
 36 16  1  0
 36 17  1  0
 36 28  1  0
 37 18  1  0
 37 19  1  0
 37 29  1  0
M  END
$$$$
