
     RDKit          2D

 13 13  0  0  0  0  0  0  0  0999 V2000
    6.4302    0.4125    0.0000 C   0  0  0  0  0  0  0  0  0  0  0  0
    7.1447    2.4750    0.0000 C   0  0  0  0  0  0  0  0  0  0  0  0
    6.4302    2.8875    0.0000 C   0  0  0  0  0  0  0  0  0  0  0  0
    7.1447    1.6500    0.0000 C   0  0  0  0  0  0  0  0  0  0  0  0
    5.7158    2.4750    0.0000 C   0  0  0  0  0  0  0  0  0  0  0  0
    2.8579    1.6500    0.0000 C   0  0  0  0  0  0  0  0  0  0  0  0
    4.2868    1.6500    0.0000 C   0  0  0  0  0  0  0  0  0  0  0  0
    6.4302    1.2375    0.0000 C   0  0  0  0  0  0  0  0  0  0  0  0
    3.5724    1.2375    0.0000 C   0  0  0  0  0  0  0  0  0  0  0  0
    5.7158    1.6500    0.0000 C   0  0  0  0  0  0  0  0  0  0  0  0
    2.1434    1.2375    0.0000 O   0  0  0  0  0  0  0  0  0  0  0  0
    3.5724    0.4125    0.0000 O   0  0  0  0  0  0  0  0  0  0  0  0
    5.0013    1.2375    0.0000 O   0  0  0  0  0  0  0  0  0  0  0  0
  3  2  2  0
  4  2  1  0
  5  3  1  0
  8  1  1  0
  8  4  2  0
  9  6  1  0
  9  7  1  0
 10  5  2  0
 10  8  1  0
 11  6  1  0
 12  9  1  0
 13  7  1  0
 13 10  1  0
M  END
$$$$
