
     RDKit          2D

 57 59  0  0  0  0  0  0  0  0999 V2000
   -1.3982   -0.8151    0.0000 O   0  0  0  0  0  0  0  0  0  0  0  0
   -1.3982   -1.6396    0.0000 C   0  0  0  0  0  0  0  0  0  0  0  0
   -2.2043   -0.3509    0.0000 C   0  0  0  0  0  0  0  0  0  0  0  0
   -0.1483   -1.6396    0.0000 C   0  0  0  0  0  0  0  0  0  0  0  0
   -2.2819   -2.5234    0.0000 C   0  0  0  0  0  0  0  0  0  0  0  0
   -2.9162   -0.7621    0.0000 C   0  0  0  0  0  0  0  0  0  0  0  0
   -2.2043    0.4735    0.0000 O   0  0  0  0  0  0  0  0  0  0  0  0
   -0.1483   -0.6474    0.0000 O   0  0  0  0  0  0  0  0  0  0  0  0
    0.7354   -2.5234    0.0000 C   0  0  0  0  0  0  0  0  0  0  0  0
   -2.9959   -2.1101    0.0000 C   0  0  0  0  0  0  0  0  0  0  0  0
   -2.2819   -3.7712    0.0000 C   0  0  0  0  0  0  0  0  0  0  0  0
   -2.9162   -1.5865    0.0000 O   0  0  0  0  0  0  0  0  0  0  0  0
   -3.6322   -0.3509    0.0000 C   0  0  0  0  0  0  0  0  0  0  0  0
   -2.9162    0.8867    0.0000 C   0  0  0  0  0  0  0  0  0  0  0  0
   -0.8623   -0.2342    0.0000 C   0  0  0  0  0  0  0  0  0  0  0  0
    0.8192   -1.5619    0.0000 O   0  0  0  0  0  0  0  0  0  0  0  0
    1.8155   -1.8974    0.0000 C   0  0  0  0  0  0  0  0  0  0  0  0
   -3.7099   -2.5234    0.0000 C   0  0  0  0  0  0  0  0  0  0  0  0
   -1.3982   -4.6551    0.0000 C   0  0  0  0  0  0  0  0  0  0  0  0
   -4.3462   -0.7621    0.0000 N   0  0  0  0  0  0  0  0  0  0  0  0
   -3.6322    0.4735    0.0000 C   0  0  0  0  0  0  0  0  0  0  0  0
   -2.9162    1.7111    0.0000 C   0  0  0  0  0  0  0  0  0  0  0  0
    1.5311   -1.1486    0.0000 C   0  0  0  0  0  0  0  0  0  0  0  0
    2.8977   -2.5234    0.0000 C   0  0  0  0  0  0  0  0  0  0  0  0
   -4.4238   -2.1101    0.0000 O   0  0  0  0  0  0  0  0  0  0  0  0
   -1.7194   -5.4159    0.0000 C   0  0  0  0  0  0  0  0  0  0  0  0
   -0.1483   -4.6551    0.0000 C   0  0  0  0  0  0  0  0  0  0  0  0
   -5.0601   -0.3509    0.0000 C   0  0  0  0  0  0  0  0  0  0  0  0
   -4.3462   -1.5865    0.0000 C   0  0  0  0  0  0  0  0  0  0  0  0
   -4.3441    0.8867    0.0000 O   0  0  0  0  0  0  0  0  0  0  0  0
    2.2451   -1.5619    0.0000 C   0  0  0  0  0  0  0  0  0  0  0  0
    1.5311   -0.3242    0.0000 O   0  0  0  0  0  0  0  0  0  0  0  0
    2.8977   -1.6990    0.0000 O   0  0  0  0  0  0  0  0  0  0  0  0
    3.9778   -1.8974    0.0000 O   0  0  0  0  0  0  0  0  0  0  0  0
    0.1605   -5.4200    0.0000 O   0  0  0  0  0  0  0  0  0  0  0  0
    0.7354   -3.7712    0.0000 C   0  0  0  0  0  0  0  0  0  0  0  0
   -4.3441    1.7111    0.0000 C   0  0  0  0  0  0  0  0  0  0  0  0
    2.9508   -1.1384    0.0000 C   0  0  0  0  0  0  0  0  0  0  0  0
    5.0580   -2.5234    0.0000 C   0  0  0  0  0  0  0  0  0  0  0  0
    1.8155   -4.3952    0.0000 C   0  0  0  0  0  0  0  0  0  0  0  0
   -3.6322    2.1223    0.0000 C   0  0  0  0  0  0  0  0  0  0  0  0
   -5.0580    2.1223    0.0000 O   0  0  0  0  0  0  0  0  0  0  0  0
    5.7720   -2.1101    0.0000 C   0  0  0  0  0  0  0  0  0  0  0  0
    5.0580   -3.7712    0.0000 C   0  0  0  0  0  0  0  0  0  0  0  0
    2.8977   -3.7712    0.0000 C   0  0  0  0  0  0  0  0  0  0  0  0
   -3.6302    2.9467    0.0000 C   0  0  0  0  0  0  0  0  0  0  0  0
   -5.0580    2.9467    0.0000 C   0  0  0  0  0  0  0  0  0  0  0  0
    3.9778   -4.3952    0.0000 C   0  0  0  0  0  0  0  0  0  0  0  0
   -2.9162    2.5356    0.0000 C   0  0  0  0  0  0  0  0  0  0  0  0
   -3.2190    3.6607    0.0000 O   0  0  0  0  0  0  0  0  0  0  0  0
   -4.3441    3.3600    0.0000 C   0  0  0  0  0  0  0  0  0  0  0  0
   -5.7720    3.3580    0.0000 C   0  0  0  0  0  0  0  0  0  0  0  0
   -4.3441    4.1844    0.0000 O   0  0  0  0  0  0  0  0  0  0  0  0
   -3.6302    4.5956    0.0000 C   0  0  0  0  0  0  0  0  0  0  0  0
   -2.9223    4.1722    0.0000 C   0  0  0  0  0  0  0  0  0  0  0  0
   -3.6302    5.4200    0.0000 O   0  0  0  0  0  0  0  0  0  0  0  0
   -2.2084    4.5833    0.0000 C   0  0  0  0  0  0  0  0  0  0  0  0
  3  1  1  1
  2  1  1  6
  4  2  1  0
  2  5  1  0
  6  3  1  0
  3  7  1  0
  4  8  1  1
  9  4  1  0
  5 10  1  6
  5 11  1  0
  6 12  1  6
 13  6  1  0
 14  7  1  0
  8 15  1  0
  9 16  1  1
  9 17  1  0
 10 18  1  0
 19 11  1  0
 13 20  1  1
 21 13  1  0
 21 14  1  0
 14 22  1  1
 16 23  1  0
 17 24  1  0
 18 25  2  0
 19 26  1  6
 27 19  1  0
 20 28  1  0
 20 29  1  0
 21 30  1  6
 23 31  1  0
 23 32  2  0
 24 33  2  0
 24 34  1  0
 27 35  1  6
 27 36  1  0
 37 30  1  6
 31 38  1  0
 39 34  1  0
 36 40  2  0
 37 41  1  0
 37 42  1  0
 39 43  1  6
 39 44  1  0
 40 45  1  0
 46 41  1  0
 47 42  1  0
 44 48  1  0
 45 48  2  0
 46 49  1  1
 46 50  1  0
 51 46  1  0
 51 47  1  0
 47 52  1  1
 51 53  1  6
 53 54  1  0
 54 55  1  0
 54 56  2  0
 55 57  1  0
M  END
$$$$
