
     RDKit          2D

 26 29  0  0  0  0  0  0  0  0999 V2000
    0.1501   -1.1436    0.0000 C   0  0  0  0  0  0  0  0  0  0  0  0
   -0.5491   -1.5534    0.0000 C   0  0  0  0  0  0  0  0  0  0  0  0
    0.1501   -0.3172    0.0000 C   0  0  0  0  0  0  0  0  0  0  0  0
    0.9319   -1.4035    0.0000 C   0  0  0  0  0  0  0  0  0  0  0  0
   -1.2730   -1.1436    0.0000 C   0  0  0  0  0  0  0  0  0  0  0  0
   -0.5491   -2.3797    0.0000 C   0  0  0  0  0  0  0  0  0  0  0  0
    0.9319   -0.0648    0.0000 C   0  0  0  0  0  0  0  0  0  0  0  0
   -0.5491    0.0785    0.0000 C   0  0  0  0  0  0  0  0  0  0  0  0
    0.1671    0.5259    0.0000 C   0  0  0  0  0  0  0  0  0  0  0  0
    1.4239   -0.7308    0.0000 C   0  0  0  0  0  0  0  0  0  0  0  0
   -1.9764   -1.5534    0.0000 C   0  0  0  0  0  0  0  0  0  0  0  0
   -1.2730   -0.3172    0.0000 C   0  0  0  0  0  0  0  0  0  0  0  0
   -1.2730   -2.7891    0.0000 C   0  0  0  0  0  0  0  0  0  0  0  0
    1.1919    0.7102    0.0000 O   0  0  0  0  0  0  0  0  0  0  0  0
   -1.9764   -2.3797    0.0000 C   0  0  0  0  0  0  0  0  0  0  0  0
   -2.6934   -1.1436    0.0000 C   0  0  0  0  0  0  0  0  0  0  0  0
    2.0012    0.8808    0.0000 C   0  0  0  0  0  0  0  0  0  0  0  0
   -2.6934   -2.7891    0.0000 C   0  0  0  0  0  0  0  0  0  0  0  0
   -3.4072   -1.5534    0.0000 C   0  0  0  0  0  0  0  0  0  0  0  0
    2.2468    1.6626    0.0000 C   0  0  0  0  0  0  0  0  0  0  0  0
    2.5401    0.2695    0.0000 O   0  0  0  0  0  0  0  0  0  0  0  0
   -3.4072   -2.3797    0.0000 C   0  0  0  0  0  0  0  0  0  0  0  0
    3.0490    1.8365    0.0000 C   0  0  0  0  0  0  0  0  0  0  0  0
   -4.1176   -2.7891    0.0000 O   0  0  0  0  0  0  0  0  0  0  0  0
    3.3049    2.6184    0.0000 C   0  0  0  0  0  0  0  0  0  0  0  0
    4.1176    2.7891    0.0000 C   0  0  0  0  0  0  0  0  0  0  0  0
  1  2  1  0
  1  3  1  0
  1  4  1  1
  2  5  1  0
  2  6  1  6
  3  7  1  0
  3  8  1  0
  3  9  1  1
  4 10  1  0
  5 11  1  0
  5 12  1  1
  6 13  1  0
  7 14  1  1
 11 15  2  0
 11 16  1  0
 14 17  1  0
 15 18  1  0
 16 19  2  0
 17 20  1  0
 17 21  2  0
 18 22  2  0
 20 23  1  0
 22 24  1  0
 23 25  1  0
 25 26  1  0
  7 10  1  0
  8 12  1  0
 13 15  1  0
 19 22  1  0
M  END
$$$$
