
     RDKit          2D

  5  4  0  0  0  0  0  0  0  0999 V2000
    0.0000    0.4671    0.0000 S   0  0  0  0  0  0  0  0  0  0  0  0
    0.5834    1.0505    0.0000 O   0  0  0  0  0  0  0  0  0  0  0  0
   -0.5834   -0.1161    0.0000 O   0  0  0  0  0  0  0  0  0  0  0  0
   -0.5834    1.0505    0.0000 O   0  0  0  0  0  0  0  0  0  0  0  0
    0.5834   -0.1161    0.0000 O   0  0  0  0  0  0  0  0  0  0  0  0
  1  2  2  0
  1  3  1  0
  1  4  2  0
  1  5  1  0
M  CHG  2   3  -1   5  -1
M  END
$$$$
