
     RDKit          2D

  4  3  0  0  0  0  0  0  0  0999 V2000
    0.1375    0.2382    0.0000 C   0  0  0  0  0  0  0  0  0  0  0  0
    0.5500    0.9526    0.0000 O   0  0  0  0  0  0  0  0  0  0  0  0
    0.5500   -0.4763    0.0000 O   0  0  0  0  0  0  0  0  0  0  0  0
   -0.6875    0.2382    0.0000 O   0  0  0  0  0  0  0  0  0  0  0  0
  1  2  2  0
  1  3  1  0
  1  4  1  0
M  CHG  2   3  -1   4  -1
M  END
$$$$
