
     RDKit          2D

 13 12  0  0  0  0  0  0  0  0999 V2000
    5.4581    0.2856    0.0000 C   0  0  0  0  0  0  0  0  0  0  0  0
    6.1725   -0.1269    0.0000 C   0  0  0  0  0  0  0  0  0  0  0  0
    6.8870    0.2856    0.0000 C   0  0  0  0  0  0  0  0  0  0  0  0
    7.6015   -0.1269    0.0000 C   0  0  0  0  0  0  0  0  0  0  0  0
    8.3160    0.2856    0.0000 C   0  0  0  0  0  0  0  0  0  0  0  0
    9.0304   -0.1269    0.0000 C   0  0  0  0  0  0  0  0  0  0  0  0
    9.7449    0.2856    0.0000 O   0  0  0  0  0  0  0  0  0  0  0  0
    9.0304   -0.9519    0.0000 O   0  0  0  0  0  0  0  0  0  0  0  0
    8.3160    1.1106    0.0000 O   0  0  0  0  0  0  0  0  0  0  0  0
    7.6015   -0.9519    0.0000 O   0  0  0  0  0  0  0  0  0  0  0  0
    6.8870    1.1106    0.0000 O   0  0  0  0  0  0  0  0  0  0  0  0
    6.1725   -0.9519    0.0000 O   0  0  0  0  0  0  0  0  0  0  0  0
    4.7436   -0.1269    0.0000 O   0  0  0  0  0  0  0  0  0  0  0  0
  1  2  1  0
  2  3  1  0
  3  4  1  0
  4  5  1  0
  5  6  1  0
  6  7  2  0
  6  8  1  0
  5  9  1  1
  4 10  1  1
  3 11  1  1
  2 12  1  6
  1 13  1  0
M  CHG  1   8  -1
M  END
$$$$
