
     RDKit          2D

 20 19  0  0  0  0  0  0  0  0999 V2000
   25.5900  -16.5373    0.0000 O   0  0  0  0  0  0  0  0  0  0  0  0
   27.0191  -16.5373    0.0000 O   0  0  0  0  0  0  0  0  0  0  0  0
   29.8770  -16.5373    0.0000 C   0  0  0  0  0  0  0  0  0  0  0  0
   27.0191  -18.1873    0.0000 C   0  0  0  0  0  0  0  0  0  0  0  0
   30.5915  -16.9498    0.0000 C   0  0  0  0  0  0  0  0  0  0  0  0
   27.0191  -19.0123    0.0000 C   0  0  0  0  0  0  0  0  0  0  0  0
   29.8770  -15.7122    0.0000 C   0  0  0  0  0  0  0  0  0  0  0  0
   26.3045  -17.7748    0.0000 C   0  0  0  0  0  0  0  0  0  0  0  0
   30.5915  -17.7748    0.0000 C   0  0  0  0  0  0  0  0  0  0  0  0
   27.7335  -19.4248    0.0000 C   0  0  0  0  0  0  0  0  0  0  0  0
   30.5915  -19.4248    0.0000 C   0  0  0  0  0  0  0  0  0  0  0  0
   29.1624  -20.2498    0.0000 C   0  0  0  0  0  0  0  0  0  0  0  0
   29.1624  -15.2997    0.0000 C   0  0  0  0  0  0  0  0  0  0  0  0
   26.3045  -16.9498    0.0000 C   0  0  0  0  0  0  0  0  0  0  0  0
   31.3059  -18.1873    0.0000 C   0  0  0  0  0  0  0  0  0  0  0  0
   27.7335  -20.2498    0.0000 C   0  0  0  0  0  0  0  0  0  0  0  0
   31.3059  -19.0123    0.0000 C   0  0  0  0  0  0  0  0  0  0  0  0
   28.4480  -20.6624    0.0000 C   0  0  0  0  0  0  0  0  0  0  0  0
   30.5915  -20.2498    0.0000 C   0  0  0  0  0  0  0  0  0  0  0  0
   29.8770  -20.6624    0.0000 C   0  0  0  0  0  0  0  0  0  0  0  0
  1 14  1  0
  2 14  2  0
  3  5  1  0
  3  7  1  0
  4  6  1  0
  4  8  1  0
  5  9  1  0
  6 10  1  0
  7 13  1  0
  8 14  1  0
  9 15  1  0
 10 16  1  0
 11 17  1  0
 11 19  1  0
 12 18  1  0
 12 20  1  0
 15 17  2  0
 16 18  2  0
 19 20  2  0
M  END
$$$$
