
     RDKit          2D

 20 19  0  0  0  0  0  0  0  0999 V2000
   -2.5006    0.4677    0.0000 O   0  0  0  0  0  0  0  0  0  0  0  0
   -1.7861    0.0552    0.0000 C   0  0  0  0  0  0  0  0  0  0  0  0
   -1.0717    0.4677    0.0000 C   0  0  0  0  0  0  0  0  0  0  0  0
   -0.3572    0.0552    0.0000 C   0  0  0  0  0  0  0  0  0  0  0  0
    0.3572    0.4677    0.0000 C   0  0  0  0  0  0  0  0  0  0  0  0
    1.0717    0.0552    0.0000 C   0  0  0  0  0  0  0  0  0  0  0  0
    1.7861    0.4677    0.0000 C   0  0  0  0  0  0  0  0  0  0  0  0
    2.5006    0.0552    0.0000 C   0  0  0  0  0  0  0  0  0  0  0  0
    3.2151    0.4677    0.0000 C   0  0  0  0  0  0  0  0  0  0  0  0
    3.9295    0.0552    0.0000 C   0  0  0  0  0  0  0  0  0  0  0  0
    4.6440    0.4677    0.0000 C   0  0  0  0  0  0  0  0  0  0  0  0
    5.3585    0.0552    0.0000 C   0  0  0  0  0  0  0  0  0  0  0  0
    6.0730    0.4677    0.0000 C   0  0  0  0  0  0  0  0  0  0  0  0
   -3.2151    0.0552    0.0000 C   0  0  0  0  0  0  0  0  0  0  0  0
   -3.2151   -0.7697    0.0000 O   0  0  0  0  0  0  0  0  0  0  0  0
   -3.9295    0.4677    0.0000 C   0  0  0  0  0  0  0  0  0  0  0  0
   -4.6440    0.0552    0.0000 S   0  0  0  0  0  0  0  0  0  0  0  0
   -5.0565    0.7697    0.0000 O   0  0  0  0  0  0  0  0  0  0  0  0
   -4.2315   -0.6592    0.0000 O   0  0  0  0  0  0  0  0  0  0  0  0
   -5.3585   -0.3572    0.0000 O   0  0  0  0  0  0  0  0  0  0  0  0
  1  2  1  0
  2  3  1  0
  3  4  1  0
  4  5  1  0
  5  6  1  0
  6  7  1  0
  7  8  1  0
  8  9  1  0
  9 10  1  0
 10 11  1  0
 11 12  1  0
 12 13  1  0
  1 14  1  0
 14 15  2  0
 14 16  1  0
 16 17  1  0
 17 18  2  0
 17 19  2  0
 17 20  1  0
M  CHG  1  20  -1
M  END
$$$$
