
     RDKit          2D

 58 64  0  0  0  0  0  0  0  0999 V2000
   -0.6392    0.3073    0.0000 C   0  0  0  0  0  0  0  0  0  0  0  0
   -1.3538   -0.1049    0.0000 C   0  0  0  0  0  0  0  0  0  0  0  0
   -1.3538   -0.9294    0.0000 C   0  0  0  0  0  0  0  0  0  0  0  0
   -0.6392   -1.3417    0.0000 C   0  0  0  0  0  0  0  0  0  0  0  0
    0.0753   -0.9294    0.0000 C   0  0  0  0  0  0  0  0  0  0  0  0
    0.8357   -1.3417    0.0000 C   0  0  0  0  0  0  0  0  0  0  0  0
    1.5502   -0.9294    0.0000 C   0  0  0  0  0  0  0  0  0  0  0  0
    1.5502   -0.1049    0.0000 C   0  0  0  0  0  0  0  0  0  0  0  0
    0.8357    0.3073    0.0000 C   0  0  0  0  0  0  0  0  0  0  0  0
    0.0753   -0.1049    0.0000 C   0  0  0  0  0  0  0  0  0  0  0  0
    0.8357    1.1318    0.0000 C   0  0  0  0  0  0  0  0  0  0  0  0
    1.5502    1.5440    0.0000 C   0  0  0  0  0  0  0  0  0  0  0  0
    2.3106    1.1318    0.0000 C   0  0  0  0  0  0  0  0  0  0  0  0
    2.3106    0.3073    0.0000 C   0  0  0  0  0  0  0  0  0  0  0  0
    3.0252   -0.1049    0.0000 C   0  0  0  0  0  0  0  0  0  0  0  0
    3.7398    0.3073    0.0000 C   0  0  0  0  0  0  0  0  0  0  0  0
    3.7398    1.1318    0.0000 C   0  0  0  0  0  0  0  0  0  0  0  0
    3.0252    1.5440    0.0000 C   0  0  0  0  0  0  0  0  0  0  0  0
    3.0252    2.3685    0.0000 C   0  0  0  0  0  0  0  0  0  0  0  0
    3.7398    2.7807    0.0000 C   0  0  0  0  0  0  0  0  0  0  0  0
    4.5001    2.3685    0.0000 C   0  0  0  0  0  0  0  0  0  0  0  0
    4.5001    1.5440    0.0000 C   0  0  0  0  0  0  0  0  0  0  0  0
   -1.1614   -2.0288    0.0000 C   0  0  0  0  0  0  0  0  0  0  0  0
   -0.1811   -2.0196    0.0000 C   0  0  0  0  0  0  0  0  0  0  0  0
    0.0753    0.7195    0.0000 C   0  0  0  0  0  0  0  0  0  0  0  0
    1.5586    0.6737    0.0000 C   0  0  0  0  0  0  0  0  0  0  0  0
    2.3190   -0.5538    0.0000 C   0  0  0  0  0  0  0  0  0  0  0  0
    3.7489    1.9562    0.0000 C   0  0  0  0  0  0  0  0  0  0  0  0
    3.2542    3.4495    0.0000 C   0  0  0  0  0  0  0  0  0  0  0  0
    4.2253    3.4403    0.0000 C   0  0  0  0  0  0  0  0  0  0  0  0
    3.8399    4.2365    0.0000 O   0  0  0  0  0  0  0  0  0  0  0  0
    4.9497    3.5281    0.0000 O   0  0  0  0  0  0  0  0  0  0  0  0
    0.1248    1.5053    0.0000 O   0  0  0  0  0  0  0  0  0  0  0  0
   -2.0867   -1.3439    0.0000 O   0  0  0  0  0  0  0  0  0  0  0  0
   -2.8025   -1.7571    0.0000 C   0  0  0  0  0  0  0  0  0  0  0  0
   -3.5182   -1.3439    0.0000 C   0  0  0  0  0  0  0  0  0  0  0  0
   -2.8025   -2.5836    0.0000 O   0  0  0  0  0  0  0  0  0  0  0  0
   -4.2339   -1.7572    0.0000 C   0  0  0  0  0  0  0  0  0  0  0  0
   -3.5182   -2.9968    0.0000 C   0  0  0  0  0  0  0  0  0  0  0  0
   -4.2339   -2.5836    0.0000 C   0  0  0  0  0  0  0  0  0  0  0  0
   -3.5182   -0.5175    0.0000 O   0  0  0  0  0  0  0  0  0  0  0  0
   -4.9497   -1.3440    0.0000 O   0  0  0  0  0  0  0  0  0  0  0  0
   -4.9496   -2.9969    0.0000 O   0  0  0  0  0  0  0  0  0  0  0  0
   -3.5182   -3.8232    0.0000 C   0  0  0  0  0  0  0  0  0  0  0  0
   -4.2339   -4.2365    0.0000 O   0  0  0  0  0  0  0  0  0  0  0  0
   -3.5182    0.3089    0.0000 C   0  0  0  0  0  0  0  0  0  0  0  0
   -4.2340    0.7221    0.0000 C   0  0  0  0  0  0  0  0  0  0  0  0
   -2.8025    0.7222    0.0000 O   0  0  0  0  0  0  0  0  0  0  0  0
   -4.2340    1.5485    0.0000 C   0  0  0  0  0  0  0  0  0  0  0  0
   -2.8026    1.5486    0.0000 C   0  0  0  0  0  0  0  0  0  0  0  0
   -3.5183    1.9618    0.0000 C   0  0  0  0  0  0  0  0  0  0  0  0
   -4.9497    0.3089    0.0000 O   0  0  0  0  0  0  0  0  0  0  0  0
   -4.9497    1.9618    0.0000 O   0  0  0  0  0  0  0  0  0  0  0  0
   -3.5183    2.7882    0.0000 O   0  0  0  0  0  0  0  0  0  0  0  0
   -2.0869    1.9618    0.0000 C   0  0  0  0  0  0  0  0  0  0  0  0
   -2.0869    2.7883    0.0000 O   0  0  0  0  0  0  0  0  0  0  0  0
   -2.7987   -4.0804    0.0000 O   0  0  0  0  0  0  0  0  0  0  0  0
   -1.5030    1.4697    0.0000 O   0  0  0  0  0  0  0  0  0  0  0  0
  1 10  1  0
  9 10  1  0
  5 10  1  0
 10 25  1  1
  4  5  1  0
  5  6  1  1
  2  1  1  0
  3  4  1  0
  4 23  1  0
  4 24  1  0
  3  2  1  0
  9 11  1  1
  8  9  1  0
  7  8  1  0
 14  8  1  0
  8 26  1  1
  7  6  1  0
 12 11  1  0
 13 12  2  0
 15 14  1  0
 13 14  1  0
 14 27  1  6
 18 13  1  0
 16 15  1  0
 17 16  1  0
 18 19  1  6
 17 18  1  0
 22 17  1  0
 17 28  1  1
 20 19  1  0
 21 20  1  0
 20 30  1  0
 20 29  1  6
 21 22  1  0
 31 30  2  0
 32 30  1  0
 33 11  2  0
  3 34  1  1
 35 36  1  0
 35 37  1  0
 36 38  1  0
 37 39  1  0
 38 40  1  0
 39 40  1  0
 35 34  1  1
 36 41  1  1
 38 42  1  6
 40 43  1  1
 39 44  1  6
 45 44  1  0
 46 47  1  0
 46 48  1  0
 47 49  1  0
 48 50  1  0
 49 51  1  0
 50 51  1  0
 46 41  1  1
 47 52  1  6
 49 53  1  1
 51 54  1  6
 50 55  1  1
 56 55  1  0
 57 44  2  0
 58 55  2  0
M  END
$$$$
