
     RDKit          2D

 18 20  0  0  1  0  0  0  0  0999 V2000
    4.3767    1.7403    0.0000 C   0  0  0  0  0  0  0  0  0  0  0  0
    4.2296    2.5521    0.0000 C   0  0  0  0  0  0  0  0  0  0  0  0
    4.9561    2.9429    0.0000 C   0  0  0  0  0  0  0  0  0  0  0  0
    5.5523    2.3727    0.0000 C   0  0  0  0  0  0  0  0  0  0  0  0
    5.6995    1.5609    0.0000 C   0  0  0  0  0  0  0  0  0  0  0  0
    5.3414    0.8177    0.0000 C   0  0  0  0  0  0  0  0  0  0  0  0
    4.6149    0.4268    0.0000 C   0  0  0  0  0  0  0  0  0  0  0  0
    5.3166   -0.0070    0.0000 O   0  0  0  0  0  0  0  0  0  0  0  0
    3.7974    0.5377    0.0000 C   0  0  0  0  0  0  0  0  0  0  0  0
    3.2012    1.1079    0.0000 C   0  0  0  0  0  0  0  0  0  0  0  0
    3.0540    1.9197    0.0000 C   0  0  0  0  0  0  0  0  0  0  0  0
    3.4121    2.6629    0.0000 C   0  0  0  0  0  0  0  0  0  0  0  0
    2.4746    0.7171    0.0000 C   0  0  0  0  0  0  0  0  0  0  0  0
    1.7314    1.0752    0.0000 C   0  0  0  0  0  0  0  0  0  0  0  0
    2.6218   -0.0947    0.0000 C   0  0  0  0  0  0  0  0  0  0  0  0
    2.0516   -0.6909    0.0000 O   0  0  0  0  0  0  0  0  0  0  0  0
    3.4393   -0.2055    0.0000 O   0  0  0  0  0  0  0  0  0  0  0  0
    6.1429    0.6219    0.0000 C   0  0  0  0  0  0  0  0  0  0  0  0
  1  2  1  0
  2  3  2  0
  3  4  1  0
  4  5  1  0
  5  6  1  0
  6  7  1  0
  7  8  1  1
  6  8  1  0
  7  9  1  0
  9 10  1  0
 10 11  1  6
 11 12  1  0
  2 12  1  0
 10 13  1  0
 13 14  2  3
 13 15  1  0
 15 16  2  0
 15 17  1  0
  9 17  1  1
  6 18  1  6
M  END
$$$$
