
     RDKit          2D

 40 45  0  0  0  0  0  0  0  0999 V2000
   -0.9316   -0.3519    0.0000 N   0  0  0  0  0  0  0  0  0  0  0  0
   -0.2277    0.0621    0.0000 N   0  0  0  0  0  0  0  0  0  0  0  0
   -0.2277    0.8902    0.0000 C   0  0  0  0  0  0  0  0  0  0  0  0
   -0.9316    1.3043    0.0000 C   0  0  0  0  0  0  0  0  0  0  0  0
   -1.6356    0.8902    0.0000 N   0  0  0  0  0  0  0  0  0  0  0  0
   -1.6356    0.0621    0.0000 C   0  0  0  0  0  0  0  0  0  0  0  0
    0.5175   -0.3519    0.0000 C   0  0  0  0  0  0  0  0  0  0  0  0
    1.2215    0.0621    0.0000 C   0  0  0  0  0  0  0  0  0  0  0  0
    1.2215    0.8902    0.0000 C   0  0  0  0  0  0  0  0  0  0  0  0
    0.5175    1.3043    0.0000 C   0  0  0  0  0  0  0  0  0  0  0  0
   -2.3395    1.3043    0.0000 C   0  0  0  0  0  0  0  0  0  0  0  0
   -3.0848    0.8902    0.0000 C   0  0  0  0  0  0  0  0  0  0  0  0
   -3.0848    0.0621    0.0000 O   0  0  0  0  0  0  0  0  0  0  0  0
   -2.3395   -0.3519    0.0000 C   0  0  0  0  0  0  0  0  0  0  0  0
   -0.9316    2.1324    0.0000 O   0  0  0  0  0  0  0  0  0  0  0  0
    1.9254    1.3043    0.0000 O   0  0  0  0  0  0  0  0  0  0  0  0
    0.5175    2.1324    0.0000 O   0  0  0  0  0  0  0  0  0  0  0  0
    1.2215    2.5465    0.0000 C   0  0  0  0  0  0  0  0  0  0  0  0
    1.9254    2.1324    0.0000 O   0  0  0  0  0  0  0  0  0  0  0  0
    2.6293    2.5465    0.0000 C   0  0  0  0  0  0  0  0  0  0  0  0
    3.3333    2.1324    0.0000 O   0  0  0  0  0  0  0  0  0  0  0  0
    4.0372    2.5465    0.0000 C   0  0  0  0  0  0  0  0  0  0  0  0
    2.6293    3.3747    0.0000 O   0  0  0  0  0  0  0  0  0  0  0  0
   -1.3457   -3.0434    0.0000 C   0  0  0  0  0  0  0  0  0  0  0  0
   -1.8426   -2.3809    0.0000 C   0  0  0  0  0  0  0  0  0  0  0  0
   -1.6769   -1.5527    0.0000 C   0  0  0  0  0  0  0  0  0  0  0  0
   -0.9316   -1.2215    0.0000 C   0  0  0  0  0  0  0  0  0  0  0  0
   -0.5175   -3.0434    0.0000 S   0  0  0  0  0  0  0  0  0  0  0  0
   -0.1863   -1.5941    0.0000 C   0  0  0  0  0  0  0  0  0  0  0  0
    0.0207   -2.4222    0.0000 C   0  0  0  0  0  0  0  0  0  0  0  0
   -2.2566   -0.9730    0.0000 C   0  0  0  0  0  0  0  0  0  0  0  0
   -3.0434   -1.2215    0.0000 C   0  0  0  0  0  0  0  0  0  0  0  0
   -3.2504   -2.0082    0.0000 C   0  0  0  0  0  0  0  0  0  0  0  0
   -2.6707   -2.5880    0.0000 C   0  0  0  0  0  0  0  0  0  0  0  0
    0.8074   -2.6707    0.0000 C   0  0  0  0  0  0  0  0  0  0  0  0
    1.4286   -2.0910    0.0000 C   0  0  0  0  0  0  0  0  0  0  0  0
    1.2215   -1.3043    0.0000 C   0  0  0  0  0  0  0  0  0  0  0  0
    0.4348   -1.0559    0.0000 C   0  0  0  0  0  0  0  0  0  0  0  0
   -2.8777   -3.3747    0.0000 F   0  0  0  0  0  0  0  0  0  0  0  0
   -4.0372   -2.2153    0.0000 F   0  0  0  0  0  0  0  0  0  0  0  0
  1  2  1  0
  2  3  1  0
  3  4  1  0
  4  5  1  0
  5  6  1  0
  1  6  1  0
  2  7  1  0
  7  8  2  0
  8  9  1  0
  9 10  1  0
  3 10  2  0
  5 11  1  0
 11 12  1  0
 12 13  1  0
 13 14  1  0
  6 14  1  6
  4 15  2  0
  9 16  2  0
 10 17  1  0
 17 18  1  0
 18 19  1  0
 19 20  1  0
 20 21  1  0
 21 22  1  0
 20 23  2  0
 26 27  1  0
 24 28  1  0
 27 29  1  0
 25 26  2  0
 28 30  1  0
 24 25  1  0
 29 30  2  0
 26 31  1  0
 31 32  2  0
 32 33  1  0
 33 34  2  0
 25 34  1  0
 30 35  1  0
 35 36  2  0
 36 37  1  0
 37 38  2  0
 29 38  1  0
 34 39  1  0
 33 40  1  0
 27  1  1  6
M  END
$$$$
