
     RDKit          2D

 19 18  0  0  0  0  0  0  0  0999 V2000
   -1.0429    2.0587    0.0000 N   0  0  0  0  0  0  0  0  0  0  0  0
   -0.2179    2.0587    0.0000 C   0  0  0  0  0  0  0  0  0  0  0  0
   -1.0429    1.2337    0.0000 C   0  0  0  0  0  0  0  0  0  0  0  0
   -1.0429    2.8759    0.0000 C   0  0  0  0  0  0  0  0  0  0  0  0
   -1.8602    2.0587    0.0000 C   0  0  0  0  0  0  0  0  0  0  0  0
    0.1868    1.3426    0.0000 C   0  0  0  0  0  0  0  0  0  0  0  0
   -1.7512    0.8211    0.0000 C   0  0  0  0  0  0  0  0  0  0  0  0
    1.0118    1.3426    0.0000 C   0  0  0  0  0  0  0  0  0  0  0  0
   -1.7512   -0.0038    0.0000 C   0  0  0  0  0  0  0  0  0  0  0  0
    1.4243    0.6266    0.0000 C   0  0  0  0  0  0  0  0  0  0  0  0
   -2.4673   -0.4085    0.0000 C   0  0  0  0  0  0  0  0  0  0  0  0
    2.2493    0.6266    0.0000 C   0  0  0  0  0  0  0  0  0  0  0  0
   -2.4673   -1.2335    0.0000 C   0  0  0  0  0  0  0  0  0  0  0  0
    2.6540   -0.0816    0.0000 C   0  0  0  0  0  0  0  0  0  0  0  0
   -3.1755   -1.6461    0.0000 C   0  0  0  0  0  0  0  0  0  0  0  0
    3.4791   -0.0816    0.0000 C   0  0  0  0  0  0  0  0  0  0  0  0
   -3.1755   -2.4711    0.0000 C   0  0  0  0  0  0  0  0  0  0  0  0
    3.8916   -0.7977    0.0000 C   0  0  0  0  0  0  0  0  0  0  0  0
   -3.8916   -2.8759    0.0000 C   0  0  0  0  0  0  0  0  0  0  0  0
  1  2  1  0
  1  3  1  0
  1  4  1  0
  1  5  1  0
  2  6  1  0
  3  7  1  0
  6  8  1  0
  7  9  1  0
  8 10  1  0
  9 11  1  0
 10 12  1  0
 11 13  1  0
 12 14  1  0
 13 15  1  0
 14 16  1  0
 15 17  1  0
 16 18  1  0
 17 19  1  0
M  CHG  1   1   1
M  END
$$$$
