
     RDKit          2D

 38 40  0  0  0  0  0  0  0  0999 V2000
   -1.7834   -0.8289    0.0000 C   0  0  0  0  0  0  0  0  0  0  0  0
   -2.4984   -1.2374    0.0000 C   0  0  0  0  0  0  0  0  0  0  0  0
   -2.4984   -2.0624    0.0000 C   0  0  0  0  0  0  0  0  0  0  0  0
   -1.7834   -2.4788    0.0000 C   0  0  0  0  0  0  0  0  0  0  0  0
   -1.0685   -2.0624    0.0000 C   0  0  0  0  0  0  0  0  0  0  0  0
   -1.0685   -1.2374    0.0000 C   0  0  0  0  0  0  0  0  0  0  0  0
   -0.3535   -0.8289    0.0000 C   0  0  0  0  0  0  0  0  0  0  0  0
   -0.3535   -0.0039    0.0000 C   0  0  0  0  0  0  0  0  0  0  0  0
    0.3535   -1.2374    0.0000 C   0  0  0  0  0  0  0  0  0  0  0  0
    1.0684   -0.8289    0.0000 C   0  0  0  0  0  0  0  0  0  0  0  0
    0.3535   -2.0624    0.0000 C   0  0  0  0  0  0  0  0  0  0  0  0
    1.0684   -2.4788    0.0000 C   0  0  0  0  0  0  0  0  0  0  0  0
    1.7834   -2.0624    0.0000 C   0  0  0  0  0  0  0  0  0  0  0  0
    1.7834   -1.2374    0.0000 C   0  0  0  0  0  0  0  0  0  0  0  0
   -0.3535    1.6459    0.0000 C   0  0  0  0  0  0  0  0  0  0  0  0
   -1.0685    1.2374    0.0000 C   0  0  0  0  0  0  0  0  0  0  0  0
   -1.0685    0.4124    0.0000 C   0  0  0  0  0  0  0  0  0  0  0  0
    0.3535    0.4124    0.0000 C   0  0  0  0  0  0  0  0  0  0  0  0
    0.3535    1.2374    0.0000 C   0  0  0  0  0  0  0  0  0  0  0  0
   -0.3535    2.4709    0.0000 N   0  0  0  0  0  0  0  0  0  0  0  0
    0.3535    2.8873    0.0000 C   0  0  0  0  0  0  0  0  0  0  0  0
    0.3535    3.7123    0.0000 C   0  0  0  0  0  0  0  0  0  0  0  0
   -1.0685    2.8873    0.0000 C   0  0  0  0  0  0  0  0  0  0  0  0
   -1.7834    2.4709    0.0000 C   0  0  0  0  0  0  0  0  0  0  0  0
   -3.2134   -0.8289    0.0000 O   0  0  0  0  0  0  0  0  0  0  0  0
   -3.2134   -2.4788    0.0000 S   0  0  0  0  0  0  0  0  0  0  0  0
   -3.6298   -3.1858    0.0000 O   0  0  0  0  0  0  0  0  0  0  0  0
   -2.8049   -3.1858    0.0000 O   0  0  0  0  0  0  0  0  0  0  0  0
   -3.9284   -2.0624    0.0000 O   0  0  0  0  0  0  0  0  0  0  0  0
   -0.3535   -2.4788    0.0000 S   0  0  0  0  0  0  0  0  0  0  0  0
   -0.3535   -3.3037    0.0000 O   0  0  0  0  0  0  0  0  0  0  0  0
   -0.1492   -1.7402    0.0000 O   0  0  0  0  0  0  0  0  0  0  0  0
    0.3535   -2.6516    0.0000 O   0  0  0  0  0  0  0  0  0  0  0  0
    2.4984   -2.4788    0.0000 N   0  0  0  0  0  0  0  0  0  0  0  0
    3.2134   -2.0624    0.0000 C   0  0  0  0  0  0  0  0  0  0  0  0
    2.4984   -3.3037    0.0000 C   0  0  0  0  0  0  0  0  0  0  0  0
    3.9284   -2.4788    0.0000 C   0  0  0  0  0  0  0  0  0  0  0  0
    1.7834   -3.7123    0.0000 C   0  0  0  0  0  0  0  0  0  0  0  0
  1  2  2  0
  1  6  1  0
  2  3  1  0
  2 25  1  0
  3  4  2  0
  3 26  1  0
  4  5  1  0
  5  6  2  0
  5 30  1  0
  6  7  1  0
  7  8  2  0
  7  9  1  0
  8 17  1  0
  8 18  1  0
  9 10  2  0
  9 11  1  0
 10 14  1  0
 11 12  2  0
 12 13  1  0
 13 14  2  0
 13 34  1  0
 15 16  1  0
 15 19  1  0
 15 20  2  0
 16 17  2  0
 18 19  2  0
 20 21  1  0
 20 23  1  0
 21 22  1  0
 23 24  1  0
 26 27  2  0
 26 28  2  0
 26 29  1  0
 30 31  1  0
 30 32  2  0
 30 33  2  0
 34 35  1  0
 34 36  1  0
 35 37  1  0
 36 38  1  0
M  CHG  1  20   1
M  END
$$$$
