
     RDKit          2D

 19 21  0  0  0  0  0  0  0  0999 V2000
    2.6945   -0.4583    0.0000 C   0  0  0  0  0  0  0  0  0  0  0  0
    3.4697   -0.1761    0.0000 C   0  0  0  0  0  0  0  0  0  0  0  0
    3.6130    0.6363    0.0000 C   0  0  0  0  0  0  0  0  0  0  0  0
    3.4697    1.4488    0.0000 C   0  0  0  0  0  0  0  0  0  0  0  0
    2.6945    1.7310    0.0000 O   0  0  0  0  0  0  0  0  0  0  0  0
    4.1017    1.9791    0.0000 N   0  0  0  0  0  0  0  0  0  0  0  0
    4.8770    1.6969    0.0000 C   0  0  0  0  0  0  0  0  0  0  0  0
    5.5090    2.2272    0.0000 O   0  0  0  0  0  0  0  0  0  0  0  0
    5.0202    0.8845    0.0000 N   0  0  0  0  0  0  0  0  0  0  0  0
    4.3882    0.3542    0.0000 C   0  0  0  0  0  0  0  0  0  0  0  0
    4.5315   -0.4583    0.0000 O   0  0  0  0  0  0  0  0  0  0  0  0
    2.7880    0.6363    0.0000 C   0  0  0  0  0  0  0  0  0  0  0  0
    2.4300    1.3796    0.0000 C   0  0  0  0  0  0  0  0  0  0  0  0
    1.6257    1.5632    0.0000 C   0  0  0  0  0  0  0  0  0  0  0  0
    0.9807    1.0488    0.0000 C   0  0  0  0  0  0  0  0  0  0  0  0
    0.9807    0.2238    0.0000 C   0  0  0  0  0  0  0  0  0  0  0  0
    1.6257   -0.2905    0.0000 C   0  0  0  0  0  0  0  0  0  0  0  0
    1.3940    0.6363    0.0000 C   0  0  0  0  0  0  0  0  0  0  0  0
    2.4300   -0.1070    0.0000 C   0  0  0  0  0  0  0  0  0  0  0  0
  1  2  1  0
  2  3  1  0
  3  4  1  0
  4  5  2  0
  4  6  1  0
  6  7  1  0
  7  8  2  0
  7  9  1  0
  9 10  1  0
  3 10  1  0
 10 11  2  0
  3 12  1  0
 12 13  2  0
 13 14  1  0
 14 15  1  0
 15 16  1  0
 16 17  1  0
 17 18  1  0
 14 18  1  0
 17 19  1  0
 12 19  1  0
M  END
$$$$
