
     RDKit          2D

  4  3  0  0  0  0  0  0  0  0999 V2000
    2.3573    0.0000    0.0000 C   0  0  0  0  0  0  0  0  0  0  0  0
    2.7698    0.7145    0.0000 C   0  0  0  0  0  0  0  0  0  0  0  0
    2.7698   -0.7145    0.0000 O   0  0  0  0  0  0  0  0  0  0  0  0
    1.5322    0.0000    0.0000 O   0  0  0  0  0  0  0  0  0  0  0  0
  1  2  1  0
  1  3  2  0
  1  4  1  0
M  CHG  1   4  -1
M  END
$$$$
