
     RDKit          2D

 45 52  0  0  1  0  0  0  0  0999 V2000
    5.9874    2.6586    0.0000 C   0  0  0  0  0  0  0  0  0  0  0  0
    4.8314    1.8187    0.0000 C   0  0  0  0  0  0  0  0  0  0  0  0
    3.2789   -1.2375    0.0000 C   0  0  0  0  0  0  0  0  0  0  0  0
    9.5737   -2.4450    0.0000 C   0  0  0  0  0  0  0  0  0  0  0  0
    9.7452   -1.6381    0.0000 C   0  0  0  0  0  0  0  0  0  0  0  0
    8.7891   -2.7000    0.0000 C   0  0  0  0  0  0  0  0  0  0  0  0
    0.7925    2.4389    0.0000 C   0  0  0  0  0  0  0  0  0  0  0  0
    9.4050    2.2994    0.0000 C   0  0  0  0  0  0  0  0  0  0  0  0
    9.1321   -1.0860    0.0000 C   0  0  0  0  0  0  0  0  0  0  0  0
    8.1760   -2.1479    0.0000 C   0  0  0  0  0  0  0  0  0  0  0  0
    1.5771    2.1840    0.0000 C   0  0  0  0  0  0  0  0  0  0  0  0
    0.1794    1.8869    0.0000 C   0  0  0  0  0  0  0  0  0  0  0  0
    8.5846    2.3856    0.0000 C   0  0  0  0  0  0  0  0  0  0  0  0
    9.5766    1.4924    0.0000 C   0  0  0  0  0  0  0  0  0  0  0  0
    7.7344   -0.7889    0.0000 C   0  0  0  0  0  0  0  0  0  0  0  0
    3.2789    1.2375    0.0000 C   0  0  0  0  0  0  0  0  0  0  0  0
    1.8500   -0.4125    0.0000 C   0  0  0  0  0  0  0  0  0  0  0  0
    0.3509   -0.2549    0.0000 C   0  0  0  0  0  0  0  0  0  0  0  0
    3.9934    0.0000    0.0000 C   0  0  0  0  0  0  0  0  0  0  0  0
    5.6519    1.9049    0.0000 C   0  0  0  0  0  0  0  0  0  0  0  0
    8.3475   -1.3410    0.0000 C   0  0  0  0  0  0  0  0  0  0  0  0
    1.1355    0.0000    0.0000 C   0  0  0  0  0  0  0  0  0  0  0  0
    3.9934    0.8250    0.0000 C   0  0  0  0  0  0  0  0  0  0  0  0
    1.7486    1.3770    0.0000 C   0  0  0  0  0  0  0  0  0  0  0  0
    2.5645    0.8250    0.0000 C   0  0  0  0  0  0  0  0  0  0  0  0
    0.3509    1.0799    0.0000 C   0  0  0  0  0  0  0  0  0  0  0  0
    2.5645   -0.0000    0.0000 C   0  0  0  0  0  0  0  0  0  0  0  0
    7.9059    0.0180    0.0000 C   0  0  0  0  0  0  0  0  0  0  0  0
    8.2490    1.6320    0.0000 C   0  0  0  0  0  0  0  0  0  0  0  0
    1.1355    0.8250    0.0000 C   0  0  0  0  0  0  0  0  0  0  0  0
    4.7079    1.2375    0.0000 C   0  0  0  0  0  0  0  0  0  0  0  0
    8.6906    0.2730    0.0000 C   0  0  0  0  0  0  0  0  0  0  0  0
    6.4724    0.4838    0.0000 C   0  0  0  0  0  0  0  0  0  0  0  0
    6.1368    1.2375    0.0000 C   0  0  0  0  0  0  0  0  0  0  0  0
    7.4644    1.3770    0.0000 C   0  0  0  0  0  0  0  0  0  0  0  0
   -0.1340    0.4125    0.0000 N   0  0  0  0  0  0  0  0  0  0  0  0
    5.4223    0.8250    0.0000 N   0  0  0  0  0  0  0  0  0  0  0  0
    3.2789   -0.4125    0.0000 N   0  0  0  0  0  0  0  0  0  0  0  0
    8.8621    1.0799    0.0000 N   0  0  0  0  0  0  0  0  0  0  0  0
    7.2929    0.5701    0.0000 N   0  0  0  0  0  0  0  0  0  0  0  0
    4.4529    2.0221    0.0000 O   0  0  0  0  0  0  0  0  0  0  0  0
    9.3037   -0.2791    0.0000 O   0  0  0  0  0  0  0  0  0  0  0  0
    6.0599   -0.2306    0.0000 O   0  0  0  0  0  0  0  0  0  0  0  0
    7.5506    2.1975    0.0000 O   0  0  0  0  0  0  0  0  0  0  0  0
    6.7499    1.7895    0.0000 O   0  0  0  0  0  0  0  0  0  0  0  0
  5  4  2  0
  6  4  1  0
  9  5  1  0
 10  6  2  0
 11  7  2  0
 12  7  1  0
 13  8  1  0
 14  8  1  0
 20  1  1  0
 20  2  1  0
 21  9  2  0
 21 10  1  0
 21 15  1  0
 22 17  1  0
 22 18  2  0
 23 16  1  0
 23 19  1  0
 24 11  1  0
 25 16  1  1
 25 24  1  0
 26 12  2  0
 27 17  1  6
 27 25  1  0
 28 15  1  6
 29 13  1  6
 30 22  1  0
 30 24  2  0
 30 26  1  0
 23 31  1  1
 32 28  1  0
 34 20  1  0
 34 33  1  0
 35 29  1  0
 36 18  1  0
 36 26  1  0
 37 31  2  3
 34 37  1  6
 38  3  1  0
 38 19  1  0
 38 27  1  0
 39 14  1  0
 39 29  1  0
 39 32  1  0
 40 28  1  0
 40 33  1  0
 40 35  1  0
 31 41  1  0
 42 32  2  0
 43 33  2  0
 35 44  1  6
 45 34  1  0
 45 35  1  0
M  END
$$$$
