
     RDKit          2D

 35 38  0  0  1  0  0  0  0  0999 V2000
   -4.4201    1.7092    0.0000 C   0  0  0  0  0  0  0  0  0  0  0  0
   -4.1500    0.9297    0.0000 C   0  0  0  0  0  0  0  0  0  0  0  0
   -3.3705    1.1997    0.0000 C   0  0  0  0  0  0  0  0  0  0  0  0
   -3.8800    0.1501    0.0000 C   0  0  0  0  0  0  0  0  0  0  0  0
   -3.0698   -0.0058    0.0000 O   0  0  0  0  0  0  0  0  0  0  0  0
   -4.4201   -0.4735    0.0000 N   0  0  0  0  0  0  0  0  0  0  0  0
   -4.1500   -1.2531    0.0000 C   0  0  0  0  0  0  0  0  0  0  0  0
   -4.6901   -1.8767    0.0000 C   0  0  0  0  0  0  0  0  0  0  0  0
   -5.5002   -1.7208    0.0000 C   0  0  0  0  0  0  0  0  0  0  0  0
   -5.8503   -0.9738    0.0000 C   0  0  0  0  0  0  0  0  0  0  0  0
   -6.6690   -1.0758    0.0000 N   0  0  0  0  0  0  0  0  0  0  0  0
   -6.8249   -1.8860    0.0000 C   0  0  0  0  0  0  0  0  0  0  0  0
   -6.1026   -2.2846    0.0000 C   0  0  0  0  0  0  0  0  0  0  0  0
   -6.0866   -3.1094    0.0000 C   0  0  0  0  0  0  0  0  0  0  0  0
   -6.7930   -3.5357    0.0000 C   0  0  0  0  0  0  0  0  0  0  0  0
   -7.5153   -3.1370    0.0000 C   0  0  0  0  0  0  0  0  0  0  0  0
   -7.5312   -2.3122    0.0000 C   0  0  0  0  0  0  0  0  0  0  0  0
   -3.3399   -1.4090    0.0000 C   0  0  0  0  0  0  0  0  0  0  0  0
   -3.0698   -2.1886    0.0000 O   0  0  0  0  0  0  0  0  0  0  0  0
   -2.7998   -0.7854    0.0000 N   0  0  0  0  0  0  0  0  0  0  0  0
   -1.9897   -0.9413    0.0000 C   0  0  0  0  0  0  0  0  0  0  0  0
   -1.4496   -0.3176    0.0000 C   0  0  0  0  0  0  0  0  0  0  0  0
   -0.6394   -0.4735    0.0000 C   0  0  0  0  0  0  0  0  0  0  0  0
   -0.2894   -1.2206    0.0000 C   0  0  0  0  0  0  0  0  0  0  0  0
    0.5293   -1.1185    0.0000 N   0  0  0  0  0  0  0  0  0  0  0  0
    0.6852   -0.3084    0.0000 C   0  0  0  0  0  0  0  0  0  0  0  0
   -0.0371    0.0902    0.0000 C   0  0  0  0  0  0  0  0  0  0  0  0
   -0.0531    0.9151    0.0000 C   0  0  0  0  0  0  0  0  0  0  0  0
    0.6533    1.3413    0.0000 C   0  0  0  0  0  0  0  0  0  0  0  0
    1.3756    0.9427    0.0000 C   0  0  0  0  0  0  0  0  0  0  0  0
    1.3916    0.1178    0.0000 C   0  0  0  0  0  0  0  0  0  0  0  0
   -1.7196   -1.7208    0.0000 N   0  0  0  0  0  0  0  0  0  0  0  0
   -0.9095   -1.8767    0.0000 C   0  0  0  0  0  0  0  0  0  0  0  0
   -0.6394   -2.6563    0.0000 O   0  0  0  0  0  0  0  0  0  0  0  0
   -4.9296    0.6596    0.0000 N   0  0  0  0  0  0  0  0  0  0  0  0
  1  2  1  0
  2  3  1  0
  2  4  1  0
  4  5  2  0
  4  6  1  0
  7  6  1  0
  7  8  1  1
  8  9  1  0
  9 10  2  0
 10 11  1  0
 11 12  1  0
 12 13  2  0
  9 13  1  0
 13 14  1  0
 14 15  2  0
 15 16  1  0
 16 17  2  0
 12 17  1  0
  7 18  1  0
 18 19  2  0
 18 20  1  0
 21 20  1  0
 21 22  1  6
 22 23  1  0
 23 24  2  0
 24 25  1  0
 25 26  1  0
 26 27  2  0
 23 27  1  0
 27 28  1  0
 28 29  2  0
 29 30  1  0
 30 31  2  0
 26 31  1  0
 21 32  1  0
 32 33  1  0
 33 34  2  0
  2 35  1  0
M  END
$$$$
