
     RDKit          2D

100105  0  0  0  0  0  0  0  0999 V2000
    3.5534   -5.4758    0.0000 C   0  0  0  0  0  0  0  0  0  0  0  0
    2.7545   -5.6421    0.0000 C   0  0  0  0  0  0  0  0  0  0  0  0
    2.2052   -5.0264    0.0000 C   0  0  0  0  0  0  0  0  0  0  0  0
    2.4549   -4.2440    0.0000 C   0  0  0  0  0  0  0  0  0  0  0  0
    3.2704   -4.0776    0.0000 O   0  0  0  0  0  0  0  0  0  0  0  0
    1.9056   -3.6283    0.0000 N   0  0  0  0  0  0  0  0  0  0  0  0
    2.1719   -2.8459    0.0000 C   0  0  0  0  0  0  0  0  0  0  0  0
    1.6228   -2.2302    0.0000 C   0  0  0  0  0  0  0  0  0  0  0  0
    0.8072   -2.3966    0.0000 S   0  0  0  0  0  0  0  0  0  0  0  0
    0.2579   -1.7808    0.0000 S   0  0  0  0  0  0  0  0  0  0  0  0
    0.5242   -0.9986    0.0000 C   0  0  0  0  0  0  0  0  0  0  0  0
   -0.0249   -0.3994    0.0000 C   0  0  0  0  0  0  0  0  0  0  0  0
   -0.8405   -0.5659    0.0000 C   0  0  0  0  0  0  0  0  0  0  0  0
   -1.3896    0.0498    0.0000 O   0  0  0  0  0  0  0  0  0  0  0  0
   -1.0902   -1.3480    0.0000 N   0  0  0  0  0  0  0  0  0  0  0  0
   -1.9056   -1.5146    0.0000 C   0  0  0  0  0  0  0  0  0  0  0  0
   -2.1553   -2.2967    0.0000 C   0  0  0  0  0  0  0  0  0  0  0  0
   -2.9543   -2.4632    0.0000 O   0  0  0  0  0  0  0  0  0  0  0  0
   -1.6061   -2.9126    0.0000 N   0  0  0  0  0  0  0  0  0  0  0  0
   -1.8557   -3.6949    0.0000 C   0  0  0  0  0  0  0  0  0  0  0  0
   -1.3065   -4.3106    0.0000 C   0  0  0  0  0  0  0  0  0  0  0  0
   -1.5728   -5.0929    0.0000 O   0  0  0  0  0  0  0  0  0  0  0  0
   -0.5076   -4.1276    0.0000 N   0  0  0  0  0  0  0  0  0  0  0  0
    0.0415   -4.7434    0.0000 C   0  0  0  0  0  0  0  0  0  0  0  0
    0.8405   -4.5770    0.0000 C   0  0  0  0  0  0  0  0  0  0  0  0
    1.1068   -3.7948    0.0000 O   0  0  0  0  0  0  0  0  0  0  0  0
    1.3896   -5.1927    0.0000 N   0  0  0  0  0  0  0  0  0  0  0  0
   -0.2079   -5.5257    0.0000 C   0  0  0  0  0  0  0  0  0  0  0  0
    0.3411   -6.1414    0.0000 C   0  0  0  0  0  0  0  0  0  0  0  0
    0.0749   -6.9237    0.0000 C   0  0  0  0  0  0  0  0  0  0  0  0
    0.6241   -7.5396    0.0000 C   0  0  0  0  0  0  0  0  0  0  0  0
    0.3744   -8.3217    0.0000 N   0  0  0  0  0  0  0  0  0  0  0  0
   -2.6713   -3.8613    0.0000 C   0  0  0  0  0  0  0  0  0  0  0  0
   -2.9209   -4.6435    0.0000 C   0  0  0  0  0  0  0  0  0  0  0  0
   -2.4382   -5.3092    0.0000 C   0  0  0  0  0  0  0  0  0  0  0  0
   -2.9209   -5.9750    0.0000 N   0  0  0  0  0  0  0  0  0  0  0  0
   -3.7198   -5.7087    0.0000 C   0  0  0  0  0  0  0  0  0  0  0  0
   -3.7032   -4.8931    0.0000 C   0  0  0  0  0  0  0  0  0  0  0  0
   -4.4188   -4.4771    0.0000 C   0  0  0  0  0  0  0  0  0  0  0  0
   -5.1345   -4.8766    0.0000 C   0  0  0  0  0  0  0  0  0  0  0  0
   -5.1345   -5.7087    0.0000 C   0  0  0  0  0  0  0  0  0  0  0  0
   -4.4188   -6.1248    0.0000 C   0  0  0  0  0  0  0  0  0  0  0  0
   -2.4382   -0.8987    0.0000 C   0  0  0  0  0  0  0  0  0  0  0  0
   -3.2537   -1.0651    0.0000 C   0  0  0  0  0  0  0  0  0  0  0  0
   -3.8030   -0.4492    0.0000 C   0  0  0  0  0  0  0  0  0  0  0  0
   -4.5852   -0.5992    0.0000 C   0  0  0  0  0  0  0  0  0  0  0  0
   -4.8682   -1.3980    0.0000 C   0  0  0  0  0  0  0  0  0  0  0  0
   -4.3356   -2.0138    0.0000 C   0  0  0  0  0  0  0  0  0  0  0  0
   -3.5035   -1.8308    0.0000 C   0  0  0  0  0  0  0  0  0  0  0  0
   -5.6838   -1.5478    0.0000 O   0  0  0  0  0  0  0  0  0  0  0  0
    0.2246    0.3828    0.0000 N   0  0  0  0  0  0  0  0  0  0  0  0
   -0.3245    0.9986    0.0000 C   0  0  0  0  0  0  0  0  0  0  0  0
   -1.1234    0.8321    0.0000 O   0  0  0  0  0  0  0  0  0  0  0  0
   -0.0749    1.7808    0.0000 C   0  0  0  0  0  0  0  0  0  0  0  0
    0.7406    1.9472    0.0000 C   0  0  0  0  0  0  0  0  0  0  0  0
    1.2898    1.3480    0.0000 C   0  0  0  0  0  0  0  0  0  0  0  0
    1.0235    0.5659    0.0000 C   0  0  0  0  0  0  0  0  0  0  0  0
    1.5728   -0.0498    0.0000 C   0  0  0  0  0  0  0  0  0  0  0  0
    2.3883    0.1164    0.0000 C   0  0  0  0  0  0  0  0  0  0  0  0
    2.6380    0.8987    0.0000 C   0  0  0  0  0  0  0  0  0  0  0  0
    2.0887    1.5146    0.0000 C   0  0  0  0  0  0  0  0  0  0  0  0
   -0.6241    2.3966    0.0000 N   0  0  0  0  0  0  0  0  0  0  0  0
   -0.3577    3.1789    0.0000 C   0  0  0  0  0  0  0  0  0  0  0  0
    0.4410    3.3452    0.0000 O   0  0  0  0  0  0  0  0  0  0  0  0
   -0.9071    3.7948    0.0000 C   0  0  0  0  0  0  0  0  0  0  0  0
   -0.6574    4.5770    0.0000 N   0  0  0  0  0  0  0  0  0  0  0  0
   -1.4562    4.4105    0.0000 C   0  0  0  0  0  0  0  0  0  0  0  0
   -1.7891    5.0762    0.0000 C   0  0  0  0  0  0  0  0  0  0  0  0
   -1.1732    5.6255    0.0000 N   0  0  0  0  0  0  0  0  0  0  0  0
   -1.3398    6.4243    0.0000 C   0  0  0  0  0  0  0  0  0  0  0  0
   -0.6907    6.7572    0.0000 C   0  0  0  0  0  0  0  0  0  0  0  0
   -0.1414    6.1414    0.0000 N   0  0  0  0  0  0  0  0  0  0  0  0
    0.6741    6.3079    0.0000 C   0  0  0  0  0  0  0  0  0  0  0  0
    1.0069    5.6588    0.0000 C   0  0  0  0  0  0  0  0  0  0  0  0
    0.3911    5.1095    0.0000 N   0  0  0  0  0  0  0  0  0  0  0  0
    0.5575    4.2939    0.0000 C   0  0  0  0  0  0  0  0  0  0  0  0
   -0.1081    3.9611    0.0000 C   0  0  0  0  0  0  0  0  0  0  0  0
    1.1732    4.8433    0.0000 C   0  0  0  0  0  0  0  0  0  0  0  0
    1.7891    5.3924    0.0000 C   0  0  0  0  0  0  0  0  0  0  0  0
    1.6228    6.2080    0.0000 O   0  0  0  0  0  0  0  0  0  0  0  0
    2.5714    5.1428    0.0000 O   0  0  0  0  0  0  0  0  0  0  0  0
    0.1247    6.9237    0.0000 C   0  0  0  0  0  0  0  0  0  0  0  0
   -0.4243    7.5396    0.0000 C   0  0  0  0  0  0  0  0  0  0  0  0
   -0.1747    8.3217    0.0000 O   0  0  0  0  0  0  0  0  0  0  0  0
   -1.2399    7.3730    0.0000 O   0  0  0  0  0  0  0  0  0  0  0  0
   -1.9556    5.8752    0.0000 C   0  0  0  0  0  0  0  0  0  0  0  0
   -2.5714    5.3258    0.0000 C   0  0  0  0  0  0  0  0  0  0  0  0
   -3.3536    5.5756    0.0000 O   0  0  0  0  0  0  0  0  0  0  0  0
   -2.4049    4.5271    0.0000 O   0  0  0  0  0  0  0  0  0  0  0  0
    2.9708   -2.6796    0.0000 C   0  0  0  0  0  0  0  0  0  0  0  0
    3.2204   -1.8973    0.0000 O   0  0  0  0  0  0  0  0  0  0  0  0
    3.5201   -3.2954    0.0000 N   0  0  0  0  0  0  0  0  0  0  0  0
    4.3190   -3.1289    0.0000 C   0  0  0  0  0  0  0  0  0  0  0  0
    4.8682   -3.7447    0.0000 C   0  0  0  0  0  0  0  0  0  0  0  0
    5.6838   -3.5617    0.0000 C   0  0  0  0  0  0  0  0  0  0  0  0
    4.6186   -4.5271    0.0000 O   0  0  0  0  0  0  0  0  0  0  0  0
    4.5852   -2.3467    0.0000 C   0  0  0  0  0  0  0  0  0  0  0  0
    4.0360   -1.7309    0.0000 O   0  0  0  0  0  0  0  0  0  0  0  0
    5.3841   -2.1803    0.0000 O   0  0  0  0  0  0  0  0  0  0  0  0
    2.4883   -6.4243    0.0000 O   0  0  0  0  0  0  0  0  0  0  0  0
  2  1  1  1
  2  3  1  0
  2100  1  0
  3  4  1  0
  3 27  1  6
  4  5  2  0
  4  6  1  0
  6  7  1  0
  7  8  1  0
  7 90  1  1
  8  9  1  0
  9 10  1  0
 10 11  1  0
 11 12  1  0
 12 13  1  0
 12 51  1  1
 13 14  2  0
 13 15  1  0
 15 16  1  0
 16 17  1  0
 16 43  1  6
 17 18  2  0
 17 19  1  0
 19 20  1  0
 20 21  1  0
 20 33  1  1
 21 22  2  0
 21 23  1  0
 23 24  1  0
 24 25  1  0
 24 28  1  6
 25 26  2  0
 25 27  1  0
 28 29  1  0
 29 30  1  0
 30 31  1  0
 31 32  1  0
 33 34  1  0
 34 35  2  0
 34 38  1  0
 35 36  1  0
 36 37  1  0
 37 38  2  0
 37 42  1  0
 38 39  1  0
 39 40  2  0
 40 41  1  0
 41 42  2  0
 43 44  1  0
 44 45  2  0
 44 49  1  0
 45 46  1  0
 46 47  2  0
 47 48  1  0
 47 50  1  0
 48 49  2  0
 51 52  1  0
 52 53  2  0
 52 54  1  0
 54 55  1  6
 54 62  1  0
 55 56  1  0
 56 57  2  0
 56 61  1  0
 57 58  1  0
 58 59  2  0
 59 60  1  0
 60 61  2  0
 62 63  1  0
 63 64  2  0
 63 65  1  0
 65 66  1  0
 66 67  1  0
 66 77  1  0
 67 68  1  0
 68 69  1  0
 69 70  1  0
 69 86  1  0
 70 71  1  0
 71 72  1  0
 72 73  1  0
 72 82  1  0
 73 74  1  0
 74 75  1  0
 75 76  1  0
 75 78  1  0
 76 77  1  0
 78 79  1  0
 79 80  2  0
 79 81  1  0
 82 83  1  0
 83 84  2  0
 83 85  1  0
 86 87  1  0
 87 88  2  0
 87 89  1  0
 90 91  2  0
 90 92  1  0
 93 92  1  6
 93 94  1  0
 93 97  1  0
 94 95  1  1
 94 96  1  0
 97 98  2  0
 97 99  1  0
M  CHG  3  81  -1  85  -1  89  -1
M  END
$$$$
