
     RDKit          2D

 80 89  0  0  0  0  0  0  0  0999 V2000
    4.5770   -6.2068    0.0000 C   0  0  0  0  0  0  0  0  0  0  0  0
   -2.9209    5.3237    0.0000 C   0  0  0  0  0  0  0  0  0  0  0  0
    2.9630   -6.5499    0.0000 C   0  0  0  0  0  0  0  0  0  0  0  0
   -4.0249    6.5499    0.0000 C   0  0  0  0  0  0  0  0  0  0  0  0
    6.4037   -2.8968    0.0000 C   0  0  0  0  0  0  0  0  0  0  0  0
   -6.4037    3.8530    0.0000 C   0  0  0  0  0  0  0  0  0  0  0  0
    1.7648   -5.0350    0.0000 C   0  0  0  0  0  0  0  0  0  0  0  0
   -4.4703    1.8899    0.0000 C   0  0  0  0  0  0  0  0  0  0  0  0
    1.5933   -4.2280    0.0000 C   0  0  0  0  0  0  0  0  0  0  0  0
   -3.6857    1.6349    0.0000 C   0  0  0  0  0  0  0  0  0  0  0  0
   -3.9529   -2.9523    0.0000 C   0  0  0  0  0  0  0  0  0  0  0  0
   -2.9967   -4.0142    0.0000 C   0  0  0  0  0  0  0  0  0  0  0  0
   -4.5660   -3.5043    0.0000 C   0  0  0  0  0  0  0  0  0  0  0  0
   -3.6098   -4.5662    0.0000 C   0  0  0  0  0  0  0  0  0  0  0  0
    2.3428    1.1998    0.0000 C   0  0  0  0  0  0  0  0  0  0  0  0
    1.7908    1.8129    0.0000 C   0  0  0  0  0  0  0  0  0  0  0  0
   -1.7705   -2.9101    0.0000 C   0  0  0  0  0  0  0  0  0  0  0  0
   -2.7267   -1.8482    0.0000 C   0  0  0  0  0  0  0  0  0  0  0  0
    2.5853   -5.1212    0.0000 C   0  0  0  0  0  0  0  0  0  0  0  0
   -4.4703    2.7149    0.0000 C   0  0  0  0  0  0  0  0  0  0  0  0
   -1.1574   -2.3581    0.0000 C   0  0  0  0  0  0  0  0  0  0  0  0
   -2.1136   -1.2962    0.0000 C   0  0  0  0  0  0  0  0  0  0  0  0
    0.6818   -0.7020    0.0000 C   0  0  0  0  0  0  0  0  0  0  0  0
   -0.2743    0.3598    0.0000 C   0  0  0  0  0  0  0  0  0  0  0  0
    1.7809   -0.9356    0.0000 C   0  0  0  0  0  0  0  0  0  0  0  0
   -0.3918    1.4774    0.0000 C   0  0  0  0  0  0  0  0  0  0  0  0
    3.4219   -1.1081    0.0000 C   0  0  0  0  0  0  0  0  0  0  0  0
   -0.3918    3.1274    0.0000 C   0  0  0  0  0  0  0  0  0  0  0  0
    4.0249   -5.5937    0.0000 C   0  0  0  0  0  0  0  0  0  0  0  0
   -3.7279    5.1522    0.0000 C   0  0  0  0  0  0  0  0  0  0  0  0
   -3.1682   -3.2072    0.0000 C   0  0  0  0  0  0  0  0  0  0  0  0
   -2.5551   -2.6552    0.0000 C   0  0  0  0  0  0  0  0  0  0  0  0
   -4.3944   -4.3113    0.0000 C   0  0  0  0  0  0  0  0  0  0  0  0
    0.5102    0.1049    0.0000 C   0  0  0  0  0  0  0  0  0  0  0  0
    2.2658   -0.2682    0.0000 C   0  0  0  0  0  0  0  0  0  0  0  0
    0.3226    1.8899    0.0000 C   0  0  0  0  0  0  0  0  0  0  0  0
    3.0863   -0.3544    0.0000 C   0  0  0  0  0  0  0  0  0  0  0  0
    0.3226    2.7149    0.0000 C   0  0  0  0  0  0  0  0  0  0  0  0
    0.0687   -1.2540    0.0000 C   0  0  0  0  0  0  0  0  0  0  0  0
   -0.8874   -0.1921    0.0000 C   0  0  0  0  0  0  0  0  0  0  0  0
    2.1165   -1.6893    0.0000 C   0  0  0  0  0  0  0  0  0  0  0  0
   -1.1062    1.8899    0.0000 C   0  0  0  0  0  0  0  0  0  0  0  0
    2.9370   -1.7756    0.0000 C   0  0  0  0  0  0  0  0  0  0  0  0
   -1.1062    2.7149    0.0000 C   0  0  0  0  0  0  0  0  0  0  0  0
    1.9303    0.4854    0.0000 C   0  0  0  0  0  0  0  0  0  0  0  0
    1.0371    1.4774    0.0000 C   0  0  0  0  0  0  0  0  0  0  0  0
    2.3078   -3.8155    0.0000 C   0  0  0  0  0  0  0  0  0  0  0  0
   -3.2008    2.3024    0.0000 C   0  0  0  0  0  0  0  0  0  0  0  0
    4.2799   -4.8091    0.0000 C   0  0  0  0  0  0  0  0  0  0  0  0
   -3.9828    4.3675    0.0000 C   0  0  0  0  0  0  0  0  0  0  0  0
   -0.7159   -0.9991    0.0000 C   0  0  0  0  0  0  0  0  0  0  0  0
    2.3940   -2.9950    0.0000 C   0  0  0  0  0  0  0  0  0  0  0  0
   -2.3758    2.3024    0.0000 C   0  0  0  0  0  0  0  0  0  0  0  0
    3.7279   -4.1960    0.0000 C   0  0  0  0  0  0  0  0  0  0  0  0
   -3.4308    3.7544    0.0000 C   0  0  0  0  0  0  0  0  0  0  0  0
    5.3418   -3.8530    0.0000 C   0  0  0  0  0  0  0  0  0  0  0  0
   -5.3418    4.8091    0.0000 C   0  0  0  0  0  0  0  0  0  0  0  0
   -5.0075   -4.8633    0.0000 F   0  0  0  0  0  0  0  0  0  0  0  0
    3.5713    0.3129    0.0000 F   0  0  0  0  0  0  0  0  0  0  0  0
    1.0371    3.1274    0.0000 F   0  0  0  0  0  0  0  0  0  0  0  0
    0.2402   -2.0610    0.0000 F   0  0  0  0  0  0  0  0  0  0  0  0
   -1.6720    0.0627    0.0000 F   0  0  0  0  0  0  0  0  0  0  0  0
    1.7809   -2.4430    0.0000 N   0  0  0  0  0  0  0  0  0  0  0  0
   -1.8909    1.6349    0.0000 N   0  0  0  0  0  0  0  0  0  0  0  0
    3.1085   -2.5825    0.0000 N   0  0  0  0  0  0  0  0  0  0  0  0
   -1.8909    2.9698    0.0000 N   0  0  0  0  0  0  0  0  0  0  0  0
    5.0869   -4.6376    0.0000 N   0  0  0  0  0  0  0  0  0  0  0  0
   -4.7898    4.1960    0.0000 N   0  0  0  0  0  0  0  0  0  0  0  0
   -1.3290   -1.5511    0.0000 N   0  0  0  0  0  0  0  0  0  0  0  0
    2.9209   -4.3675    0.0000 N   0  0  0  0  0  0  0  0  0  0  0  0
   -3.6857    2.9698    0.0000 N   0  0  0  0  0  0  0  0  0  0  0  0
    1.1233    0.6569    0.0000 N   0  0  0  0  0  0  0  0  0  0  0  0
    3.9828   -3.4114    0.0000 O   0  0  0  0  0  0  0  0  0  0  0  0
   -2.6238    3.9260    0.0000 O   0  0  0  0  0  0  0  0  0  0  0  0
    4.7898   -3.2399    0.0000 O   0  0  0  0  0  0  0  0  0  0  0  0
   -5.0869    5.5937    0.0000 O   0  0  0  0  0  0  0  0  0  0  0  0
    3.2180   -5.7653    0.0000 O   0  0  0  0  0  0  0  0  0  0  0  0
   -4.2799    5.7653    0.0000 O   0  0  0  0  0  0  0  0  0  0  0  0
    6.1488   -3.6814    0.0000 O   0  0  0  0  0  0  0  0  0  0  0  0
   -6.1488    4.6376    0.0000 O   0  0  0  0  0  0  0  0  0  0  0  0
  9  7  1  0
 10  8  1  0
 13 11  2  0
 14 12  1  0
 16 15  1  0
 19  7  1  0
 20  8  1  0
 21 17  1  0
 22 18  1  0
 29  1  1  1
 30  2  1  6
 31 11  1  0
 31 12  2  0
 32 17  1  0
 32 18  1  0
 32 31  1  0
 33 13  1  0
 33 14  2  0
 34 23  2  0
 34 24  1  0
 35 25  2  0
 36 26  2  0
 37 27  2  0
 37 35  1  0
 38 28  2  0
 38 36  1  0
 39 23  1  0
 40 24  2  0
 41 25  1  0
 42 26  1  0
 43 27  1  0
 43 41  2  0
 44 28  1  0
 44 42  2  0
 45 15  1  0
 45 35  1  6
 46 16  1  0
 46 36  1  1
 47  9  1  0
 48 10  1  0
 49 29  1  0
 50 30  1  0
 51 39  2  0
 51 40  1  0
 47 52  1  1
 48 53  1  6
 54 49  1  0
 55 50  1  0
 58 33  1  0
 59 37  1  0
 60 38  1  0
 61 39  1  0
 62 40  1  0
 63 41  1  0
 63 52  2  0
 64 42  1  0
 64 53  2  0
 65 43  1  0
 65 52  1  0
 66 44  1  0
 66 53  1  0
 49 67  1  1
 67 56  2  3
 50 68  1  1
 68 57  2  3
 69 21  1  0
 69 22  1  0
 69 51  1  0
 70 19  1  0
 70 47  1  0
 70 54  1  0
 71 20  1  0
 71 48  1  0
 71 55  1  0
 72 34  1  0
 72 45  1  0
 72 46  1  0
 73 54  2  0
 74 55  2  0
 56 75  1  0
 57 76  1  0
 77  3  1  0
 77 29  1  0
 78  4  1  0
 78 30  1  0
 79  5  1  0
 79 56  1  0
 80  6  1  0
 80 57  1  0
M  END
$$$$
