
     RDKit          2D

 35 39  0  0  0  0  0  0  0  0999 V2000
    0.9920    6.1875    0.0000 C   0  0  0  0  0  0  0  0  0  0  0  0
    0.9920    5.3625    0.0000 N   0  0  0  0  0  0  0  0  0  0  0  0
    1.7064    4.9500    0.0000 C   0  0  0  0  0  0  0  0  0  0  0  0
    1.7064    4.1250    0.0000 C   0  0  0  0  0  0  0  0  0  0  0  0
    0.9920    3.7125    0.0000 N   0  0  0  0  0  0  0  0  0  0  0  0
    0.2775    4.1250    0.0000 C   0  0  0  0  0  0  0  0  0  0  0  0
    0.2775    4.9500    0.0000 C   0  0  0  0  0  0  0  0  0  0  0  0
    0.9920    2.8875    0.0000 C   0  0  0  0  0  0  0  0  0  0  0  0
    1.7064    2.4750    0.0000 C   0  0  0  0  0  0  0  0  0  0  0  0
    1.7064    1.6500    0.0000 C   0  0  0  0  0  0  0  0  0  0  0  0
    0.9920    1.2375    0.0000 C   0  0  0  0  0  0  0  0  0  0  0  0
    0.9920    0.4125    0.0000 N   0  0  0  0  0  0  0  0  0  0  0  0
    0.2775    0.0000    0.0000 C   0  0  0  0  0  0  0  0  0  0  0  0
    0.2775   -0.8250    0.0000 N   0  0  0  0  0  0  0  0  0  0  0  0
   -0.4369   -1.2375    0.0000 C   0  0  0  0  0  0  0  0  0  0  0  0
   -0.4369   -2.0625    0.0000 O   0  0  0  0  0  0  0  0  0  0  0  0
    0.2775   -2.4750    0.0000 C   0  0  0  0  0  0  0  0  0  0  0  0
    0.9920   -2.0625    0.0000 C   0  0  0  0  0  0  0  0  0  0  0  0
    1.7064   -2.4750    0.0000 C   0  0  0  0  0  0  0  0  0  0  0  0
    1.7064   -3.3000    0.0000 C   0  0  0  0  0  0  0  0  0  0  0  0
    0.9920   -3.7125    0.0000 C   0  0  0  0  0  0  0  0  0  0  0  0
    0.9920   -4.5375    0.0000 N   0  0  0  0  0  0  0  0  0  0  0  0
    1.7064   -4.9500    0.0000 C   0  0  0  0  0  0  0  0  0  0  0  0
    2.4209   -4.5375    0.0000 O   0  0  0  0  0  0  0  0  0  0  0  0
    1.7064   -5.7750    0.0000 C   0  0  0  0  0  0  0  0  0  0  0  0
    2.4209   -6.1875    0.0000 C   0  0  0  0  0  0  0  0  0  0  0  0
    0.2775   -3.3000    0.0000 C   0  0  0  0  0  0  0  0  0  0  0  0
   -1.1514   -0.8250    0.0000 C   0  0  0  0  0  0  0  0  0  0  0  0
   -1.9360   -1.0799    0.0000 S   0  0  0  0  0  0  0  0  0  0  0  0
   -2.4209   -0.4125    0.0000 C   0  0  0  0  0  0  0  0  0  0  0  0
   -1.9360    0.2549    0.0000 C   0  0  0  0  0  0  0  0  0  0  0  0
   -1.1514    0.0000    0.0000 C   0  0  0  0  0  0  0  0  0  0  0  0
   -0.4369    0.4125    0.0000 N   0  0  0  0  0  0  0  0  0  0  0  0
    0.2775    1.6500    0.0000 C   0  0  0  0  0  0  0  0  0  0  0  0
    0.2775    2.4750    0.0000 C   0  0  0  0  0  0  0  0  0  0  0  0
  1  2  1  0
  2  3  1  0
  3  4  1  0
  4  5  1  0
  5  6  1  0
  6  7  1  0
  2  7  1  0
  5  8  1  0
  8  9  2  0
  9 10  1  0
 10 11  2  0
 11 12  1  0
 12 13  1  0
 13 14  2  0
 14 15  1  0
 15 16  1  0
 16 17  1  0
 17 18  2  0
 18 19  1  0
 19 20  2  0
 20 21  1  0
 21 22  1  0
 22 23  1  0
 23 24  2  0
 23 25  1  0
 25 26  2  3
 21 27  2  0
 17 27  1  0
 15 28  2  0
 28 29  1  0
 29 30  1  0
 30 31  2  0
 31 32  1  0
 28 32  1  0
 32 33  2  0
 13 33  1  0
 11 34  1  0
 34 35  2  0
  8 35  1  0
M  END
$$$$
