
     RDKit          2D

  4  3  0  0  0  0  0  0  0  0999 V2000
    0.0160    0.7145    0.0000 O   0  0  0  0  0  0  0  0  0  0  0  0
    0.0160   -0.7145    0.0000 O   0  0  0  0  0  0  0  0  0  0  0  0
   -0.3964    0.0000    0.0000 C   0  0  0  0  0  0  0  0  0  0  0  0
   -1.2214    0.0000    0.0000 O   0  0  0  0  0  0  0  0  0  0  0  0
  3  1  1  0
  3  2  1  0
  3  4  2  0
M  CHG  2   1  -1   2  -1
M  END
$$$$
