
     RDKit          2D

 13 12  0  0  0  0  0  0  0  0999 V2000
    6.4856    2.2095    0.0000 C   0  0  0  0  0  0  0  0  0  0  0  0
    6.1836    1.0825    0.0000 C   0  0  0  0  0  0  0  0  0  0  0  0
    6.4856    3.0345    0.0000 C   0  0  0  0  0  0  0  0  0  0  0  0
    7.0086    1.0825    0.0000 C   0  0  0  0  0  0  0  0  0  0  0  0
    5.0567    1.3845    0.0000 C   0  0  0  0  0  0  0  0  0  0  0  0
    5.7711    1.7970    0.0000 C   0  0  0  0  0  0  0  0  0  0  0  0
    5.7711    3.4470    0.0000 O   0  0  0  0  0  0  0  0  0  0  0  0
    7.2001    3.4470    0.0000 O   0  0  0  0  0  0  0  0  0  0  0  0
    7.4211    1.7970    0.0000 O   0  0  0  0  0  0  0  0  0  0  0  0
    7.4211    0.3680    0.0000 O   0  0  0  0  0  0  0  0  0  0  0  0
    5.0567    0.5595    0.0000 O   0  0  0  0  0  0  0  0  0  0  0  0
    4.3422    1.7970    0.0000 O   0  0  0  0  0  0  0  0  0  0  0  0
    5.3586    2.5114    0.0000 O   0  0  0  0  0  0  0  0  0  0  0  0
  3  1  1  0
  4  2  1  0
  6  1  1  0
  6  2  1  0
  6  5  1  0
  7  3  2  0
  8  3  1  0
  9  4  2  0
 10  4  1  0
 11  5  2  0
 12  5  1  0
 13  6  1  0
M  CHG  3   8  -1  10  -1  12  -1
M  END
$$$$
