
     RDKit          2D

 29 33  0  0  1  0  0  0  0  0999 V2000
    2.0307    1.7357    0.0000 C   0  0  0  0  0  0  0  0  0  0  0  0
   -2.0411    3.9503    0.0000 C   0  0  0  0  0  0  0  0  0  0  0  0
   -2.6924    3.4440    0.0000 C   0  0  0  0  0  0  0  0  0  0  0  0
   -1.3583    3.4873    0.0000 C   0  0  0  0  0  0  0  0  0  0  0  0
   -2.4121    2.6680    0.0000 C   0  0  0  0  0  0  0  0  0  0  0  0
   -1.0812    2.0435    0.0000 C   0  0  0  0  0  0  0  0  0  0  0  0
    4.5754   -0.8489    0.0000 C   0  0  0  0  0  0  0  0  0  0  0  0
    6.1708    1.0432    0.0000 C   0  0  0  0  0  0  0  0  0  0  0  0
    3.7633   -0.7037    0.0000 C   0  0  0  0  0  0  0  0  0  0  0  0
    5.3587    1.1884    0.0000 C   0  0  0  0  0  0  0  0  0  0  0  0
    2.0195   -0.2889    0.0000 C   0  0  0  0  0  0  0  0  0  0  0  0
    1.3367    0.1741    0.0000 C   0  0  0  0  0  0  0  0  0  0  0  0
   -0.2640    2.1564    0.0000 C   0  0  0  0  0  0  0  0  0  0  0  0
    3.7345    1.4789    0.0000 C   0  0  0  0  0  0  0  0  0  0  0  0
    2.9224    1.6241    0.0000 C   0  0  0  0  0  0  0  0  0  0  0  0
    5.9193   -0.3634    0.0000 C   0  0  0  0  0  0  0  0  0  0  0  0
   -1.5876    2.6948    0.0000 C   0  0  0  0  0  0  0  0  0  0  0  0
    5.1072   -0.2182    0.0000 C   0  0  0  0  0  0  0  0  0  0  0  0
    6.4511    0.2673    0.0000 C   0  0  0  0  0  0  0  0  0  0  0  0
    4.8269    0.5577    0.0000 C   0  0  0  0  0  0  0  0  0  0  0  0
    4.0148    0.7029    0.0000 C   0  0  0  0  0  0  0  0  0  0  0  0
    3.4830    0.0722    0.0000 C   0  0  0  0  0  0  0  0  0  0  0  0
    2.6708    0.2174    0.0000 C   0  0  0  0  0  0  0  0  0  0  0  0
    1.5660    0.9666    0.0000 C   0  0  0  0  0  0  0  0  0  0  0  0
    0.2424    1.5050    0.0000 C   0  0  0  0  0  0  0  0  0  0  0  0
    2.3905    0.9934    0.0000 C   0  0  0  0  0  0  0  0  0  0  0  0
    7.2632    0.1221    0.0000 O   0  0  0  0  0  0  0  0  0  0  0  0
   -0.0685    0.7409    0.0000 O   0  0  0  0  0  0  0  0  0  0  0  0
    1.0596    1.6179    0.0000 O   0  0  0  0  0  0  0  0  0  0  0  0
  3  2  1  0
  4  2  1  0
  5  3  1  0
  9  7  1  0
 10  8  1  0
 12 11  1  0
 13  6  1  0
 15 14  1  0
 17  4  1  0
 17  5  1  0
 17  6  1  0
 18  7  1  0
 18 16  2  0
 19  8  2  0
 19 16  1  0
 20 10  2  0
 20 18  1  0
 21 14  1  6
 21 20  1  0
 22  9  1  1
 22 21  1  0
 23 11  1  6
 23 22  1  0
 24 12  1  0
 25 13  1  0
 26  1  1  6
 26 15  1  0
 26 23  1  0
 26 24  1  0
 27 19  1  0
 28 25  2  0
 24 29  1  6
 29 25  1  0
M  END
$$$$
