
     RDKit          2D

 18 19  0  0  0  0  0  0  0  0999 V2000
   -2.9412   -0.7390    0.0000 O   0  0  0  0  0  0  0  0  0  0  0  0
   -2.3231   -0.1929    0.0000 C   0  0  0  0  0  0  0  0  0  0  0  0
   -1.5383   -0.4520    0.0000 C   0  0  0  0  0  0  0  0  0  0  0  0
   -1.2883   -1.2382    0.0000 C   0  0  0  0  0  0  0  0  0  0  0  0
   -1.7797   -1.9030    0.0000 O   0  0  0  0  0  0  0  0  0  0  0  0
   -0.4640   -1.2416    0.0000 C   0  0  0  0  0  0  0  0  0  0  0  0
   -0.2036   -0.4607    0.0000 C   0  0  0  0  0  0  0  0  0  0  0  0
   -0.8683    0.0305    0.0000 O   0  0  0  0  0  0  0  0  0  0  0  0
    0.5826   -0.2109    0.0000 N   0  0  0  0  0  0  0  0  0  0  0  0
    1.1911   -0.7641    0.0000 C   0  0  0  0  0  0  0  0  0  0  0  0
    1.0149   -1.5714    0.0000 O   0  0  0  0  0  0  0  0  0  0  0  0
    1.9775   -0.5144    0.0000 N   0  0  0  0  0  0  0  0  0  0  0  0
    2.1550    0.2887    0.0000 C   0  0  0  0  0  0  0  0  0  0  0  0
    2.9412    0.5386    0.0000 O   0  0  0  0  0  0  0  0  0  0  0  0
    1.5451    0.8461    0.0000 C   0  0  0  0  0  0  0  0  0  0  0  0
    0.7588    0.5962    0.0000 C   0  0  0  0  0  0  0  0  0  0  0  0
    1.7214    1.6531    0.0000 C   0  0  0  0  0  0  0  0  0  0  0  0
    2.5075    1.9030    0.0000 C   0  0  0  0  0  0  0  0  0  0  0  0
  1  2  1  0
  3  2  1  1
  3  4  1  0
  4  5  1  6
  4  6  1  0
  6  7  1  0
  7  8  1  0
  3  8  1  0
  7  9  1  1
  9 10  1  0
 10 11  2  0
 10 12  1  0
 12 13  1  0
 13 14  2  0
 13 15  1  0
 15 16  2  0
  9 16  1  0
 17 18  1  0
 15 17  1  0
M  END
$$$$
