
     RDKit          2D

 23 26  0  0  1  0  0  0  0  0999 V2000
    8.3557   -0.7991    0.0000 C   0  0  0  0  0  0  0  0  0  0  0  0
    2.0307    1.7357    0.0000 C   0  0  0  0  0  0  0  0  0  0  0  0
    4.5754   -0.8489    0.0000 C   0  0  0  0  0  0  0  0  0  0  0  0
    6.1708    1.0432    0.0000 C   0  0  0  0  0  0  0  0  0  0  0  0
    3.7633   -0.7037    0.0000 C   0  0  0  0  0  0  0  0  0  0  0  0
    5.3587    1.1884    0.0000 C   0  0  0  0  0  0  0  0  0  0  0  0
    2.0195   -0.2889    0.0000 C   0  0  0  0  0  0  0  0  0  0  0  0
    1.3367    0.1741    0.0000 C   0  0  0  0  0  0  0  0  0  0  0  0
    3.7345    1.4789    0.0000 C   0  0  0  0  0  0  0  0  0  0  0  0
    2.9224    1.6241    0.0000 C   0  0  0  0  0  0  0  0  0  0  0  0
    5.9193   -0.3634    0.0000 C   0  0  0  0  0  0  0  0  0  0  0  0
    7.5435   -0.6539    0.0000 C   0  0  0  0  0  0  0  0  0  0  0  0
    5.1072   -0.2182    0.0000 C   0  0  0  0  0  0  0  0  0  0  0  0
    6.4511    0.2673    0.0000 C   0  0  0  0  0  0  0  0  0  0  0  0
    4.8269    0.5577    0.0000 C   0  0  0  0  0  0  0  0  0  0  0  0
    4.0148    0.7029    0.0000 C   0  0  0  0  0  0  0  0  0  0  0  0
    3.4830    0.0722    0.0000 C   0  0  0  0  0  0  0  0  0  0  0  0
    2.6708    0.2174    0.0000 C   0  0  0  0  0  0  0  0  0  0  0  0
    1.5660    0.9666    0.0000 C   0  0  0  0  0  0  0  0  0  0  0  0
    2.3905    0.9934    0.0000 C   0  0  0  0  0  0  0  0  0  0  0  0
    7.0117   -1.2846    0.0000 O   0  0  0  0  0  0  0  0  0  0  0  0
    1.0596    1.6179    0.0000 O   0  0  0  0  0  0  0  0  0  0  0  0
    7.2632    0.1221    0.0000 O   0  0  0  0  0  0  0  0  0  0  0  0
  5  3  1  0
  6  4  1  0
  8  7  1  0
 10  9  1  0
 12  1  1  0
 13  3  1  0
 13 11  2  0
 14  4  2  0
 14 11  1  0
 15  6  2  0
 15 13  1  0
 16  9  1  6
 16 15  1  0
 17  5  1  1
 17 16  1  0
 18  7  1  6
 18 17  1  0
 19  8  1  0
 20  2  1  6
 20 10  1  0
 20 18  1  0
 20 19  1  0
 21 12  2  0
 19 22  1  6
 23 12  1  0
 23 14  1  0
M  END
$$$$
