
     RDKit          2D

  9  9  0  0  0  0  0  0  0  0999 V2000
   -0.9196   -0.3017    0.0000 C   0  0  0  0  0  0  0  0  0  0  0  0
   -0.3362    0.2816    0.0000 C   0  0  0  0  0  0  0  0  0  0  0  0
    0.2471   -0.3017    0.0000 C   0  0  0  0  0  0  0  0  0  0  0  0
   -0.3362   -0.8851    0.0000 C   0  0  0  0  0  0  0  0  0  0  0  0
   -0.3362   -1.7102    0.0000 F   0  0  0  0  0  0  0  0  0  0  0  0
   -0.7673    0.9851    0.0000 N   0  0  0  0  0  0  0  0  0  0  0  0
    0.0948    0.9851    0.0000 C   0  0  0  0  0  0  0  0  0  0  0  0
   -0.2988    1.7102    0.0000 O   0  0  0  0  0  0  0  0  0  0  0  0
    0.9196    0.9635    0.0000 O   0  0  0  0  0  0  0  0  0  0  0  0
  1  2  1  0
  2  3  1  0
  3  4  1  0
  1  4  1  0
  4  5  1  1
  2  6  1  6
  2  7  1  0
  7  8  2  0
  7  9  1  0
M  ISO  1   5  18
M  END
$$$$
