
     RDKit          2D

 25 27  0  0  0  0  0  0  0  0999 V2000
    1.9210   -0.4111    0.0000 N   0  0  0  0  0  0  0  0  0  0  0  0
    2.7056    0.6686    0.0000 S   0  0  0  0  0  0  0  0  0  0  0  0
    3.9050   -0.4111    0.0000 C   0  0  0  0  0  0  0  0  0  0  0  0
    3.1905    0.0012    0.0000 C   0  0  0  0  0  0  0  0  0  0  0  0
    3.9050    0.4137    0.0000 C   0  0  0  0  0  0  0  0  0  0  0  0
    2.7056   -0.6661    0.0000 C   0  0  0  0  0  0  0  0  0  0  0  0
    3.7675   -1.6222    0.0000 O   0  0  0  0  0  0  0  0  0  0  0  0
    2.9605   -1.4507    0.0000 C   0  0  0  0  0  0  0  0  0  0  0  0
    2.4085   -2.0638    0.0000 O   0  0  0  0  0  0  0  0  0  0  0  0
    1.0960    0.4137    0.0000 C   0  0  0  0  0  0  0  0  0  0  0  0
    0.3817    0.8262    0.0000 N   0  0  0  0  0  0  0  0  0  0  0  0
   -0.3328    0.4137    0.0000 C   0  0  0  0  0  0  0  0  0  0  0  0
   -0.3328   -0.4111    0.0000 O   0  0  0  0  0  0  0  0  0  0  0  0
   -1.0471    0.8262    0.0000 C   0  0  0  0  0  0  0  0  0  0  0  0
    1.0960   -0.4111    0.0000 C   0  0  0  0  0  0  0  0  0  0  0  0
    0.5127   -0.9945    0.0000 O   0  0  0  0  0  0  0  0  0  0  0  0
    1.9210    0.4137    0.0000 C   0  0  0  0  0  0  0  0  0  0  0  0
   -1.0471    1.6512    0.0000 C   0  0  0  0  0  0  0  0  0  0  0  0
   -1.7617    0.4137    0.0000 O   0  0  0  0  0  0  0  0  0  0  0  0
   -2.4761    0.8263    0.0000 C   0  0  0  0  0  0  0  0  0  0  0  0
   -2.4761    1.6513    0.0000 C   0  0  0  0  0  0  0  0  0  0  0  0
   -3.1905    2.0638    0.0000 C   0  0  0  0  0  0  0  0  0  0  0  0
   -3.1905    0.4138    0.0000 C   0  0  0  0  0  0  0  0  0  0  0  0
   -3.9051    1.6513    0.0000 C   0  0  0  0  0  0  0  0  0  0  0  0
   -3.9051    0.8263    0.0000 C   0  0  0  0  0  0  0  0  0  0  0  0
 17 10  1  0
 10 15  1  0
 15  1  1  0
  1  6  1  0
 17  1  1  0
 17  2  1  1
  2  4  1  0
  6  4  1  0
  4  3  1  0
  4  5  1  0
  6  8  1  6
  8  7  1  0
  8  9  2  0
 10 11  1  1
 11 12  1  0
 12 14  1  0
 12 13  2  0
 15 16  2  0
 14 18  1  0
 14 19  1  0
 19 20  1  0
 20 21  2  0
 22 21  1  0
 23 20  1  0
 24 22  2  0
 25 23  2  0
 25 24  1  0
M  END
$$$$
