
     RDKit          2D

  8  8  0  0  0  0  0  0  0  0999 V2000
    0.7226   -0.1353    0.0000 O   0  0  0  0  0  0  0  0  0  0  0  0
   -0.6122   -0.1352    0.0000 O   0  0  0  0  0  0  0  0  0  0  0  0
   -0.3573   -0.9199    0.0000 C   0  0  0  0  0  0  0  0  0  0  0  0
    0.4677   -0.9199    0.0000 C   0  0  0  0  0  0  0  0  0  0  0  0
   -0.8424   -1.5872    0.0000 O   0  0  0  0  0  0  0  0  0  0  0  0
    0.0552    0.3496    0.0000 Pt  0  0  0  0  0  4  0  0  0  0  0  0
    0.7697    0.7621    0.0000 N   0  0  0  0  0  0  0  0  0  0  0  0
   -0.6592    0.7621    0.0000 N   0  0  0  0  0  0  0  0  0  0  0  0
  2  3  1  0
  3  4  1  0
  4  1  1  0
  1  6  1  0
  6  2  1  0
  3  5  2  0
  6  8  1  0
  6  7  1  0
M  END
$$$$
