
     RDKit          2D

 20 21  0  0  0  0  0  0  0  0999 V2000
   -3.6829    1.4289    0.0000 C   0  0  0  0  0  0  0  0  0  0  0  0
   -3.6829    0.0000    0.0000 C   0  0  0  0  0  0  0  0  0  0  0  0
    3.5893   -2.4209    0.0000 C   0  0  0  0  0  0  0  0  0  0  0  0
    2.8748   -3.6584    0.0000 C   0  0  0  0  0  0  0  0  0  0  0  0
   -2.8579    1.4289    0.0000 C   0  0  0  0  0  0  0  0  0  0  0  0
   -2.8579    0.0000    0.0000 C   0  0  0  0  0  0  0  0  0  0  0  0
   -0.3829   -1.4289    0.0000 C   0  0  0  0  0  0  0  0  0  0  0  0
    0.0296   -2.1434    0.0000 C   0  0  0  0  0  0  0  0  0  0  0  0
   -1.6204    0.7145    0.0000 C   0  0  0  0  0  0  0  0  0  0  0  0
   -1.2079    0.0000    0.0000 C   0  0  0  0  0  0  0  0  0  0  0  0
    0.8546   -0.7145    0.0000 C   0  0  0  0  0  0  0  0  0  0  0  0
    0.0296   -0.7145    0.0000 C   0  0  0  0  0  0  0  0  0  0  0  0
    0.8546   -2.1434    0.0000 C   0  0  0  0  0  0  0  0  0  0  0  0
    1.2671   -1.4289    0.0000 C   0  0  0  0  0  0  0  0  0  0  0  0
    2.1603   -2.4209    0.0000 C   0  0  0  0  0  0  0  0  0  0  0  0
    1.4066   -2.7565    0.0000 N   0  0  0  0  0  0  0  0  0  0  0  0
    2.8748   -2.8334    0.0000 N   0  0  0  0  0  0  0  0  0  0  0  0
   -2.4454    0.7145    0.0000 N   0  0  0  0  0  0  0  0  0  0  0  0
   -0.3829    0.0000    0.0000 O   0  0  0  0  0  0  0  0  0  0  0  0
    2.0741   -1.6005    0.0000 S   0  0  0  0  0  0  0  0  0  0  0  0
  5  1  1  0
  6  2  1  0
  8  7  2  0
 10  9  1  0
 12  7  1  0
 12 11  2  0
 13  8  1  0
 14 11  1  0
 14 13  2  0
 16 13  1  0
 16 15  2  0
 17  3  1  0
 17  4  1  0
 17 15  1  0
 18  5  1  0
 18  6  1  0
 18  9  1  0
 19 10  1  0
 19 12  1  0
 20 14  1  0
 20 15  1  0
M  END
$$$$
