
     RDKit          2D

 46 51  0  0  0  0  0  0  0  0999 V2000
    5.8447    5.3814    0.0000 C   0  0  0  0  0  0  0  0  0  0  0  0
    5.1339    4.9626    0.0000 C   0  0  0  0  0  0  0  0  0  0  0  0
    5.1339    4.1503    0.0000 C   0  0  0  0  0  0  0  0  0  0  0  0
    4.4105    3.7315    0.0000 C   0  0  0  0  0  0  0  0  0  0  0  0
    4.4105    2.9065    0.0000 C   0  0  0  0  0  0  0  0  0  0  0  0
    3.6997    2.4876    0.0000 C   0  0  0  0  0  0  0  0  0  0  0  0
    3.6997    1.6626    0.0000 C   0  0  0  0  0  0  0  0  0  0  0  0
    4.4105    1.2565    0.0000 O   0  0  0  0  0  0  0  0  0  0  0  0
    2.9889    1.2565    0.0000 O   0  0  0  0  0  0  0  0  0  0  0  0
    2.9889    0.4314    0.0000 C   0  0  0  0  0  0  0  0  0  0  0  0
    2.2782    0.0126    0.0000 C   0  0  0  0  0  0  0  0  0  0  0  0
    2.2782   -0.8249    0.0000 C   0  0  0  0  0  0  0  0  0  0  0  0
    3.7124   -0.8249    0.0000 C   0  0  0  0  0  0  0  0  0  0  0  0
    3.7124    0.0000    0.0000 C   0  0  0  0  0  0  0  0  0  0  0  0
    1.5547   -1.2438    0.0000 C   0  0  0  0  0  0  0  0  0  0  0  0
    1.5547   -2.0688    0.0000 C   0  0  0  0  0  0  0  0  0  0  0  0
    0.8313   -2.4877    0.0000 C   0  0  0  0  0  0  0  0  0  0  0  0
    0.1078   -2.0688    0.0000 C   0  0  0  0  0  0  0  0  0  0  0  0
    0.1078   -1.2438    0.0000 C   0  0  0  0  0  0  0  0  0  0  0  0
    0.8313   -0.8249    0.0000 C   0  0  0  0  0  0  0  0  0  0  0  0
    0.8313    0.0126    0.0000 C   0  0  0  0  0  0  0  0  0  0  0  0
    1.5420    0.4188    0.0000 C   0  0  0  0  0  0  0  0  0  0  0  0
    0.1078   -0.4188    0.0000 C   0  0  0  0  0  0  0  0  0  0  0  0
   -0.6028   -0.8249    0.0000 C   0  0  0  0  0  0  0  0  0  0  0  0
   -1.3136   -1.2438    0.0000 C   0  0  0  0  0  0  0  0  0  0  0  0
   -1.3136   -2.0688    0.0000 C   0  0  0  0  0  0  0  0  0  0  0  0
   -2.0244   -2.4877    0.0000 N   0  0  0  0  0  0  0  0  0  0  0  0
   -2.0244   -3.3126    0.0000 N   0  0  0  0  0  0  0  0  0  0  0  0
   -2.7478   -3.7315    0.0000 C   0  0  0  0  0  0  0  0  0  0  0  0
   -3.4586   -3.3126    0.0000 O   0  0  0  0  0  0  0  0  0  0  0  0
   -2.7478   -4.5438    0.0000 C   0  0  0  0  0  0  0  0  0  0  0  0
   -1.3009   -4.5438    0.0000 C   0  0  0  0  0  0  0  0  0  0  0  0
   -0.8821   -5.2545    0.0000 C   0  0  0  0  0  0  0  0  0  0  0  0
   -0.0571   -5.2545    0.0000 C   0  0  0  0  0  0  0  0  0  0  0  0
    0.3490   -4.5311    0.0000 C   0  0  0  0  0  0  0  0  0  0  0  0
   -0.0571   -3.8330    0.0000 C   0  0  0  0  0  0  0  0  0  0  0  0
   -0.8948   -3.8330    0.0000 C   0  0  0  0  0  0  0  0  0  0  0  0
   -4.1947   -4.5438    0.0000 C   0  0  0  0  0  0  0  0  0  0  0  0
   -4.6009   -3.8457    0.0000 C   0  0  0  0  0  0  0  0  0  0  0  0
   -5.4259   -3.8457    0.0000 C   0  0  0  0  0  0  0  0  0  0  0  0
   -5.8447   -4.5564    0.0000 C   0  0  0  0  0  0  0  0  0  0  0  0
   -5.4259   -5.2672    0.0000 C   0  0  0  0  0  0  0  0  0  0  0  0
   -4.6009   -5.2672    0.0000 C   0  0  0  0  0  0  0  0  0  0  0  0
   -2.7478   -5.3814    0.0000 O   0  0  0  0  0  0  0  0  0  0  0  0
   -0.6028   -2.4877    0.0000 C   0  0  0  0  0  0  0  0  0  0  0  0
    2.2021    0.9392    0.0000 C   0  0  0  0  0  0  0  0  0  0  0  0
  1  2  1  0
  2  3  1  0
  3  4  1  0
  4  5  1  0
  5  6  1  0
  6  7  1  0
  7  8  2  0
  7  9  1  0
 10  9  1  1
 10 11  1  0
 10 14  1  0
 11 12  1  0
 11 22  1  0
 11 46  1  1
 12 13  1  1
 12 15  1  0
 13 14  1  0
 15 16  1  6
 15 20  1  0
 16 17  1  0
 17 18  1  0
 18 19  1  0
 18 45  2  0
 19 20  1  0
 19 23  1  1
 19 24  1  0
 20 21  1  1
 21 22  1  0
 24 25  1  0
 25 26  1  0
 26 27  2  3
 26 45  1  0
 27 28  1  0
 28 29  1  0
 29 30  2  0
 29 31  1  0
 31 32  1  0
 31 38  1  0
 31 44  1  0
 32 33  2  0
 32 37  1  0
 33 34  1  0
 34 35  2  0
 35 36  1  0
 36 37  2  0
 38 39  2  0
 38 43  1  0
 39 40  1  0
 40 41  2  0
 41 42  1  0
 42 43  2  0
M  END
$$$$
