
     RDKit          2D

 38 38  0  0  0  0  0  0  0  0999 V2000
    4.1910   -2.6627    0.0000 O   0  0  0  0  0  0  0  0  0  0  0  0
    4.2276   -1.8385    0.0000 C   0  0  0  0  0  0  0  0  0  0  0  0
    3.5322   -1.3947    0.0000 C   0  0  0  0  0  0  0  0  0  0  0  0
    2.8001   -1.7751    0.0000 C   0  0  0  0  0  0  0  0  0  0  0  0
    2.1046   -1.3313    0.0000 C   0  0  0  0  0  0  0  0  0  0  0  0
    1.3726   -1.7117    0.0000 O   0  0  0  0  0  0  0  0  0  0  0  0
    0.6771   -1.2679    0.0000 Ca  0  0  0  0  0  2  0  0  0  0  0  0
   -0.0183   -0.8241    0.0000 O   0  0  0  0  0  0  0  0  0  0  0  0
   -0.7503   -1.2045    0.0000 C   0  0  0  0  0  0  0  0  0  0  0  0
   -1.4458   -0.7607    0.0000 C   0  0  0  0  0  0  0  0  0  0  0  0
   -2.1779   -1.1411    0.0000 C   0  0  0  0  0  0  0  0  0  0  0  0
   -2.2145   -1.9653    0.0000 O   0  0  0  0  0  0  0  0  0  0  0  0
   -2.8733   -0.6973    0.0000 C   0  0  0  0  0  0  0  0  0  0  0  0
   -2.8367    0.1267    0.0000 O   0  0  0  0  0  0  0  0  0  0  0  0
   -3.5322    0.5705    0.0000 C   0  0  0  0  0  0  0  0  0  0  0  0
   -4.2643    0.1901    0.0000 O   0  0  0  0  0  0  0  0  0  0  0  0
   -4.9597    0.6339    0.0000 C   0  0  0  0  0  0  0  0  0  0  0  0
   -4.9231    1.4581    0.0000 C   0  0  0  0  0  0  0  0  0  0  0  0
   -5.6186    1.9019    0.0000 O   0  0  0  0  0  0  0  0  0  0  0  0
   -4.1910    1.8385    0.0000 C   0  0  0  0  0  0  0  0  0  0  0  0
   -4.1544    2.6627    0.0000 O   0  0  0  0  0  0  0  0  0  0  0  0
   -3.4956    1.3947    0.0000 C   0  0  0  0  0  0  0  0  0  0  0  0
   -2.7635    1.7751    0.0000 O   0  0  0  0  0  0  0  0  0  0  0  0
   -5.6918    0.2535    0.0000 C   0  0  0  0  0  0  0  0  0  0  0  0
   -6.3873    0.6973    0.0000 O   0  0  0  0  0  0  0  0  0  0  0  0
   -3.6054   -1.0777    0.0000 C   0  0  0  0  0  0  0  0  0  0  0  0
   -3.6420   -1.9019    0.0000 C   0  0  0  0  0  0  0  0  0  0  0  0
   -4.3741   -2.2823    0.0000 O   0  0  0  0  0  0  0  0  0  0  0  0
   -4.3009   -0.6339    0.0000 O   0  0  0  0  0  0  0  0  0  0  0  0
   -1.4092    0.0633    0.0000 O   0  0  0  0  0  0  0  0  0  0  0  0
   -0.7869   -2.0287    0.0000 O   0  0  0  0  0  0  0  0  0  0  0  0
    2.1413   -0.5071    0.0000 O   0  0  0  0  0  0  0  0  0  0  0  0
    2.7635   -2.5993    0.0000 O   0  0  0  0  0  0  0  0  0  0  0  0
    3.5688   -0.5705    0.0000 O   0  0  0  0  0  0  0  0  0  0  0  0
    4.9597   -1.4581    0.0000 C   0  0  0  0  0  0  0  0  0  0  0  0
    5.6552   -1.9019    0.0000 C   0  0  0  0  0  0  0  0  0  0  0  0
    6.3873   -1.5215    0.0000 O   0  0  0  0  0  0  0  0  0  0  0  0
    4.9963   -0.6339    0.0000 O   0  0  0  0  0  0  0  0  0  0  0  0
  2  1  1  1
  2  3  1  0
  3  4  1  0
  4  5  1  0
  5  6  1  0
  6  7  1  0
  7  8  1  0
  8  9  1  0
  9 10  1  0
 10 11  1  0
 11 12  1  1
 11 13  1  0
 13 14  1  1
 15 14  1  6
 15 16  1  0
 16 17  1  0
 17 18  1  0
 18 19  1  6
 18 20  1  0
 20 21  1  1
 20 22  1  0
 15 22  1  0
 22 23  1  1
 17 24  1  6
 24 25  1  0
 13 26  1  0
 26 27  1  0
 27 28  1  0
 26 29  1  1
 10 30  1  1
  9 31  2  0
  5 32  2  0
  4 33  1  1
  3 34  1  1
  2 35  1  0
 35 36  1  0
 36 37  1  0
 35 38  1  6
M  END
$$$$
