
     RDKit          2D

 14 15  0  0  0  0  0  0  0  0999 V2000
    0.3327    0.8250    0.0000 C   0  0  0  0  0  0  0  0  0  0  0  0
    1.0472    0.4125    0.0000 C   0  0  0  0  0  0  0  0  0  0  0  0
    0.3327   -0.8250    0.0000 C   0  0  0  0  0  0  0  0  0  0  0  0
   -0.3817   -0.4125    0.0000 C   0  0  0  0  0  0  0  0  0  0  0  0
   -0.3817    0.4125    0.0000 C   0  0  0  0  0  0  0  0  0  0  0  0
    1.0472   -0.4125    0.0000 C   0  0  0  0  0  0  0  0  0  0  0  0
    1.7617    1.6500    0.0000 O   0  0  0  0  0  0  0  0  0  0  0  0
    1.7617    0.8250    0.0000 C   0  0  0  0  0  0  0  0  0  0  0  0
    2.4762    0.4125    0.0000 O   0  0  0  0  0  0  0  0  0  0  0  0
   -1.1662   -0.6674    0.0000 O   0  0  0  0  0  0  0  0  0  0  0  0
   -1.1662    0.6674    0.0000 O   0  0  0  0  0  0  0  0  0  0  0  0
   -1.6512    0.0000    0.0000 Bi  0  0  0  0  0  3  0  0  0  0  0  0
   -2.4762    0.0000    0.0000 O   0  0  0  0  0  0  0  0  0  0  0  0
    0.3327   -1.6500    0.0000 O   0  0  0  0  0  0  0  0  0  0  0  0
  2  1  2  0
  2  8  1  0
  3 14  1  0
  3  4  1  0
  4 10  1  0
  4  5  2  0
  1  5  1  0
  5 11  1  0
  6  2  1  0
  6  3  2  0
  7  8  2  0
  8  9  1  0
 10 12  1  0
 11 12  1  0
 12 13  1  0
M  END
$$$$
