
     RDKit          2D

 17 17  0  0  1  0  0  0  0  0999 V2000
   15.3503   -7.0568    0.0000 O   0  0  0  0  0  0  0  0  0  0  0  0
   16.0648  -10.7693    0.0000 O   0  0  0  0  0  0  0  0  0  0  0  0
   18.2082   -9.5318    0.0000 O   0  0  0  0  0  0  0  0  0  0  0  0
   13.9214   -7.8818    0.0000 N   0  0  0  0  0  0  0  0  0  0  0  0
   13.2069   -8.2943    0.0000 C   0  0  0  0  0  0  0  0  0  0  0  0
   15.3503   -7.8818    0.0000 C   0  0  0  0  0  0  0  0  0  0  0  0
   14.6358   -8.2943    0.0000 C   0  0  0  0  0  0  0  0  0  0  0  0
   16.7792  -10.3568    0.0000 C   0  0  0  0  0  0  0  0  0  0  0  0
   12.7944   -7.5799    0.0000 C   0  0  0  0  0  0  0  0  0  0  0  0
   12.4924   -8.7068    0.0000 C   0  0  0  0  0  0  0  0  0  0  0  0
   13.6194   -9.0088    0.0000 C   0  0  0  0  0  0  0  0  0  0  0  0
   17.4937   -9.1193    0.0000 C   0  0  0  0  0  0  0  0  0  0  0  0
   16.7792   -9.5318    0.0000 C   0  0  0  0  0  0  0  0  0  0  0  0
   16.0648   -8.2943    0.0000 C   0  0  0  0  0  0  0  0  0  0  0  0
   16.0648   -9.1193    0.0000 C   0  0  0  0  0  0  0  0  0  0  0  0
   17.4937   -8.2943    0.0000 C   0  0  0  0  0  0  0  0  0  0  0  0
   16.7792   -7.8818    0.0000 C   0  0  0  0  0  0  0  0  0  0  0  0
  6  1  1  6
  2  8  1  0
  3 12  1  0
  4  5  1  0
  4  7  1  0
  5  9  1  0
  5 10  1  0
  5 11  1  0
  6  7  1  0
  6 14  1  0
  8 13  1  0
 12 13  2  0
 12 16  1  0
 13 15  1  0
 14 15  2  0
 14 17  1  0
 16 17  2  0
M  END
$$$$
