
     RDKit          2D

 23 26  0  0  0  0  0  0  0  0999 V2000
    1.4761    0.2726    0.0000 C   0  0  0  0  0  0  0  0  0  0  0  0
    0.0496   -0.5535    0.0000 C   0  0  0  0  0  0  0  0  0  0  0  0
   -0.6610   -0.9584    0.0000 C   0  0  0  0  0  0  0  0  0  0  0  0
    2.1729    0.7105    0.0000 C   0  0  0  0  0  0  0  0  0  0  0  0
    1.4624   -0.5672    0.0000 C   0  0  0  0  0  0  0  0  0  0  0  0
   -0.6610   -1.8012    0.0000 C   0  0  0  0  0  0  0  0  0  0  0  0
    0.7655   -0.9584    0.0000 C   0  0  0  0  0  0  0  0  0  0  0  0
   -1.3577   -2.2143    0.0000 C   0  0  0  0  0  0  0  0  0  0  0  0
    0.7436    0.6940    0.0000 C   0  0  0  0  0  0  0  0  0  0  0  0
    0.0496    0.2726    0.0000 C   0  0  0  0  0  0  0  0  0  0  0  0
    2.8173    0.2396    0.0000 C   0  0  0  0  0  0  0  0  0  0  0  0
    2.8173   -0.5672    0.0000 C   0  0  0  0  0  0  0  0  0  0  0  0
   -1.3797   -0.5535    0.0000 C   0  0  0  0  0  0  0  0  0  0  0  0
    0.7655   -1.8012    0.0000 C   0  0  0  0  0  0  0  0  0  0  0  0
    1.8231    1.4707    0.0000 C   0  0  0  0  0  0  0  0  0  0  0  0
    0.0661   -2.2143    0.0000 C   0  0  0  0  0  0  0  0  0  0  0  0
   -2.0986   -1.8012    0.0000 C   0  0  0  0  0  0  0  0  0  0  0  0
    2.2969    2.2143    0.0000 O   0  0  0  0  0  0  0  0  0  0  0  0
   -2.8173   -2.2143    0.0000 O   0  0  0  0  0  0  0  0  0  0  0  0
   -2.0986   -0.9584    0.0000 C   0  0  0  0  0  0  0  0  0  0  0  0
    1.4761    1.0933    0.0000 C   0  0  0  0  0  0  0  0  0  0  0  0
    2.4786    1.4954    0.0000 C   0  0  0  0  0  0  0  0  0  0  0  0
    1.0299    1.6029    0.0000 C   0  0  0  0  0  0  0  0  0  0  0  0
  2 10  1  0
  3  2  2  0
  4  1  1  0
  5  1  1  0
  6  3  1  0
  7  5  1  0
  8  6  2  0
  9  1  1  0
 10  9  1  0
 11  4  1  0
  5 12  1  1
 13  3  1  0
  7 14  1  6
  4 15  1  0
 16 14  1  0
 17 20  1  0
 18 15  2  0
 19 17  2  0
 20 13  1  0
  1 21  1  1
  4 22  1  6
 23 15  1  0
 12 11  1  0
  7  2  1  0
 16  6  1  0
  8 17  1  0
M  END
$$$$
