
     RDKit          2D

113114  0  0  0  0  0  0  0  0999 V2000
    5.2304   -1.2779    0.0000 C   0  0  0  0  0  0  0  0  0  0  0  0
    5.1951   -2.7003    0.0000 C   0  0  0  0  0  0  0  0  0  0  0  0
   -0.1046   -5.7063    0.0000 C   0  0  0  0  0  0  0  0  0  0  0  0
    1.2442   -5.5503    0.0000 C   0  0  0  0  0  0  0  0  0  0  0  0
    4.1205    5.7063    0.0000 C   0  0  0  0  0  0  0  0  0  0  0  0
    3.3299    5.1835    0.0000 C   0  0  0  0  0  0  0  0  0  0  0  0
    6.8799    0.5922    0.0000 C   0  0  0  0  0  0  0  0  0  0  0  0
    7.6081    1.2026    0.0000 C   0  0  0  0  0  0  0  0  0  0  0  0
    1.6822    4.0159    0.0000 C   0  0  0  0  0  0  0  0  0  0  0  0
   -2.3588    3.5836    0.0000 C   0  0  0  0  0  0  0  0  0  0  0  0
    1.2565    0.4859    0.0000 C   0  0  0  0  0  0  0  0  0  0  0  0
   -2.9212   -3.0866    0.0000 C   0  0  0  0  0  0  0  0  0  0  0  0
    0.8013    1.1373    0.0000 C   0  0  0  0  0  0  0  0  0  0  0  0
   -3.2983   -3.8350    0.0000 C   0  0  0  0  0  0  0  0  0  0  0  0
    4.0564   -1.5217    0.0000 C   0  0  0  0  0  0  0  0  0  0  0  0
    0.4301   -4.4220    0.0000 C   0  0  0  0  0  0  0  0  0  0  0  0
   -7.5486   -1.5181    0.0000 C   0  0  0  0  0  0  0  0  0  0  0  0
    7.1241    4.5945    0.0000 C   0  0  0  0  0  0  0  0  0  0  0  0
   -5.5759   -0.8771    0.0000 C   0  0  0  0  0  0  0  0  0  0  0  0
   -0.8533    0.0585    0.0000 C   0  0  0  0  0  0  0  0  0  0  0  0
    1.6171   -0.7626    0.0000 C   0  0  0  0  0  0  0  0  0  0  0  0
   -1.4462   -0.1243    0.0000 C   0  0  0  0  0  0  0  0  0  0  0  0
    0.4110    1.4613    0.0000 C   0  0  0  0  0  0  0  0  0  0  0  0
    3.1607    1.1980    0.0000 C   0  0  0  0  0  0  0  0  0  0  0  0
    4.7802   -1.9708    0.0000 C   0  0  0  0  0  0  0  0  0  0  0  0
    0.5247   -5.2388    0.0000 C   0  0  0  0  0  0  0  0  0  0  0  0
    4.0931    4.8505    0.0000 C   0  0  0  0  0  0  0  0  0  0  0  0
    6.7916    1.4351    0.0000 C   0  0  0  0  0  0  0  0  0  0  0  0
    2.2641    3.4015    0.0000 C   0  0  0  0  0  0  0  0  0  0  0  0
   -2.2319    2.7489    0.0000 C   0  0  0  0  0  0  0  0  0  0  0  0
   -6.7648   -1.5332    0.0000 C   0  0  0  0  0  0  0  0  0  0  0  0
    1.2846   -0.2569    0.0000 C   0  0  0  0  0  0  0  0  0  0  0  0
   -3.1925   -2.2814    0.0000 C   0  0  0  0  0  0  0  0  0  0  0  0
    3.6310   -0.7532    0.0000 C   0  0  0  0  0  0  0  0  0  0  0  0
    6.3638    4.1437    0.0000 C   0  0  0  0  0  0  0  0  0  0  0  0
   -5.1971   -1.5635    0.0000 C   0  0  0  0  0  0  0  0  0  0  0  0
    1.1281   -3.9498    0.0000 C   0  0  0  0  0  0  0  0  0  0  0  0
    1.0873   -1.3976    0.0000 C   0  0  0  0  0  0  0  0  0  0  0  0
   -1.1312   -0.8868    0.0000 C   0  0  0  0  0  0  0  0  0  0  0  0
    0.5432    2.2446    0.0000 C   0  0  0  0  0  0  0  0  0  0  0  0
    3.9666    1.3678    0.0000 C   0  0  0  0  0  0  0  0  0  0  0  0
   -7.9275   -0.8317    0.0000 C   0  0  0  0  0  0  0  0  0  0  0  0
    7.9840    4.6937    0.0000 C   0  0  0  0  0  0  0  0  0  0  0  0
   -0.1655   -0.3982    0.0000 C   0  0  0  0  0  0  0  0  0  0  0  0
    1.0618    1.9372    0.0000 C   0  0  0  0  0  0  0  0  0  0  0  0
   -2.9644   -4.5924    0.0000 C   0  0  0  0  0  0  0  0  0  0  0  0
   -5.1709   -0.2058    0.0000 C   0  0  0  0  0  0  0  0  0  0  0  0
    4.3918    4.0272    0.0000 C   0  0  0  0  0  0  0  0  0  0  0  0
    6.2276    2.0853    0.0000 C   0  0  0  0  0  0  0  0  0  0  0  0
   -1.5739    2.1625    0.0000 C   0  0  0  0  0  0  0  0  0  0  0  0
    1.9789    2.6790    0.0000 C   0  0  0  0  0  0  0  0  0  0  0  0
   -6.3860   -2.2196    0.0000 C   0  0  0  0  0  0  0  0  0  0  0  0
    2.1457   -0.4911    0.0000 C   0  0  0  0  0  0  0  0  0  0  0  0
   -2.7334   -1.5610    0.0000 C   0  0  0  0  0  0  0  0  0  0  0  0
    4.1885   -0.2060    0.0000 C   0  0  0  0  0  0  0  0  0  0  0  0
   -4.4132   -1.5786    0.0000 C   0  0  0  0  0  0  0  0  0  0  0  0
    5.7000    4.5809    0.0000 C   0  0  0  0  0  0  0  0  0  0  0  0
    1.3741   -2.2523    0.0000 C   0  0  0  0  0  0  0  0  0  0  0  0
   -0.3097   -0.9908    0.0000 C   0  0  0  0  0  0  0  0  0  0  0  0
    4.6606    1.7830    0.0000 C   0  0  0  0  0  0  0  0  0  0  0  0
   -0.1333    2.6705    0.0000 C   0  0  0  0  0  0  0  0  0  0  0  0
   -1.8185    1.3902    0.0000 C   0  0  0  0  0  0  0  0  0  0  0  0
    3.6084    3.9444    0.0000 C   0  0  0  0  0  0  0  0  0  0  0  0
    6.7624    2.6790    0.0000 C   0  0  0  0  0  0  0  0  0  0  0  0
    1.8165   -4.4220    0.0000 C   0  0  0  0  0  0  0  0  0  0  0  0
   -6.3598   -0.8620    0.0000 N   0  0  0  0  0  0  0  0  0  0  0  0
   -7.5224   -0.1604    0.0000 N   0  0  0  0  0  0  0  0  0  0  0  0
    8.7113    4.3476    0.0000 N   0  0  0  0  0  0  0  0  0  0  0  0
   -1.5854    0.5989    0.0000 N   0  0  0  0  0  0  0  0  0  0  0  0
    3.0450    3.4003    0.0000 N   0  0  0  0  0  0  0  0  0  0  0  0
    0.3141   -1.1549    0.0000 N   0  0  0  0  0  0  0  0  0  0  0  0
   -4.0344   -2.2651    0.0000 N   0  0  0  0  0  0  0  0  0  0  0  0
    0.4807   -0.5145    0.0000 N   0  0  0  0  0  0  0  0  0  0  0  0
   -5.6021   -2.2348    0.0000 N   0  0  0  0  0  0  0  0  0  0  0  0
    2.8515   -0.8423    0.0000 N   0  0  0  0  0  0  0  0  0  0  0  0
    6.7896    3.4712    0.0000 N   0  0  0  0  0  0  0  0  0  0  0  0
    1.1826   -3.0966    0.0000 N   0  0  0  0  0  0  0  0  0  0  0  0
    1.3659    2.3541    0.0000 N   0  0  0  0  0  0  0  0  0  0  0  0
   -1.8761   -1.4017    0.0000 N   0  0  0  0  0  0  0  0  0  0  0  0
    4.2007    0.5949    0.0000 N   0  0  0  0  0  0  0  0  0  0  0  0
    4.9083    4.6301    0.0000 N   0  0  0  0  0  0  0  0  0  0  0  0
    5.4551    1.8726    0.0000 N   0  0  0  0  0  0  0  0  0  0  0  0
   -0.9302    2.6468    0.0000 N   0  0  0  0  0  0  0  0  0  0  0  0
   -3.0754    2.7951    0.0000 O   0  0  0  0  0  0  0  0  0  0  0  0
   -8.7113   -0.8166    0.0000 O   0  0  0  0  0  0  0  0  0  0  0  0
    8.6270    5.2274    0.0000 O   0  0  0  0  0  0  0  0  0  0  0  0
    0.6226   -0.0820    0.0000 O   0  0  0  0  0  0  0  0  0  0  0  0
    1.8945    2.1762    0.0000 O   0  0  0  0  0  0  0  0  0  0  0  0
    0.5921    2.6201    0.0000 O   0  0  0  0  0  0  0  0  0  0  0  0
   -2.1849   -4.6772    0.0000 O   0  0  0  0  0  0  0  0  0  0  0  0
   -3.4275   -5.2251    0.0000 O   0  0  0  0  0  0  0  0  0  0  0  0
   -5.5497    0.4805    0.0000 O   0  0  0  0  0  0  0  0  0  0  0  0
   -4.3870   -0.2210    0.0000 O   0  0  0  0  0  0  0  0  0  0  0  0
    2.8075    2.8080    0.0000 O   0  0  0  0  0  0  0  0  0  0  0  0
   -6.7911   -2.8909    0.0000 O   0  0  0  0  0  0  0  0  0  0  0  0
    2.8607   -0.1181    0.0000 O   0  0  0  0  0  0  0  0  0  0  0  0
   -3.3769   -1.0159    0.0000 O   0  0  0  0  0  0  0  0  0  0  0  0
    4.9660   -0.5975    0.0000 O   0  0  0  0  0  0  0  0  0  0  0  0
   -4.0082   -0.9074    0.0000 O   0  0  0  0  0  0  0  0  0  0  0  0
    6.0237    5.3704    0.0000 O   0  0  0  0  0  0  0  0  0  0  0  0
    2.0995   -2.6376    0.0000 O   0  0  0  0  0  0  0  0  0  0  0  0
   -0.6268   -1.7625    0.0000 O   0  0  0  0  0  0  0  0  0  0  0  0
    4.8143    2.5682    0.0000 O   0  0  0  0  0  0  0  0  0  0  0  0
   -0.0942    3.5285    0.0000 O   0  0  0  0  0  0  0  0  0  0  0  0
   -2.6565    1.5339    0.0000 O   0  0  0  0  0  0  0  0  0  0  0  0
    3.0479    4.6105    0.0000 O   0  0  0  0  0  0  0  0  0  0  0  0
    7.5793    2.4561    0.0000 O   0  0  0  0  0  0  0  0  0  0  0  0
    2.5238   -4.0838    0.0000 O   0  0  0  0  0  0  0  0  0  0  0  0
    1.7557   -5.2036    0.0000 O   0  0  0  0  0  0  0  0  0  0  0  0
    1.9104    0.1125    0.0000 S   0  0  0  0  0  0  0  0  0  0  0  0
   -0.9385    0.6219    0.0000 S   0  0  0  0  0  0  0  0  0  0  0  0
   -0.2971    1.1162    0.0000 S   0  0  0  0  0  0  0  0  0  0  0  0
    2.4716    0.7397    0.0000 S   0  0  0  0  0  0  0  0  0  0  0  0
 13 11  1  0
 14 12  1  0
 25  1  1  0
 25  2  1  0
 25 15  1  0
 26  3  1  0
 26  4  1  0
 26 16  1  0
 27  5  1  0
 27  6  1  0
 28  7  1  0
 28  8  1  0
 29  9  1  6
 30 10  1  6
 31 17  1  0
 32 11  1  1
 33 12  1  6
 34 15  1  6
 35 18  1  6
 36 19  1  1
 37 16  1  6
 38 21  1  0
 39 22  1  0
 40 23  1  1
 41 24  1  1
 42 17  1  0
 43 18  1  0
 44 20  1  0
 45 13  1  0
 46 14  1  0
 47 19  1  0
 48 27  1  1
 49 28  1  6
 50 30  1  0
 51 29  1  0
 52 31  1  0
 53 32  1  0
 54 33  1  0
 55 34  1  0
 56 36  1  0
 57 35  1  0
 38 58  1  1
 59 39  1  0
 60 41  1  0
 61 40  1  0
 62 50  1  0
 63 48  1  0
 64 49  1  0
 65 37  1  0
 31 66  1  6
 67 42  2  3
 68 43  2  3
 69 20  1  0
 69 62  2  0
 70 29  1  0
 70 63  2  0
 71 38  1  0
 71 44  2  0
 33 72  1  0
 72 56  2  3
 73 32  1  0
 73 59  2  0
 36 74  1  0
 74 52  2  3
 75 34  1  0
 75 53  2  0
 76 35  1  0
 76 64  2  0
 37 77  1  0
 77 58  2  3
 78 40  1  0
 78 51  2  0
 39 79  1  1
 79 54  2  3
 80 41  1  0
 80 55  2  0
 81 48  1  0
 81 57  2  0
 82 49  1  0
 82 60  2  0
 50 83  1  6
 83 61  2  0
 30 84  1  0
 85 42  1  0
 86 43  1  0
 44 87  1  0
 88 45  2  0
 89 45  1  0
 90 46  2  0
 91 46  1  0
 92 47  2  0
 93 47  1  0
 51 94  1  0
 52 95  1  0
 53 96  1  0
 54 97  1  0
 55 98  1  0
 56 99  1  0
 57100  1  0
 58101  1  0
 59102  1  0
 60103  1  0
 61104  1  0
105 62  1  0
 63106  1  0
 64107  1  0
108 65  2  0
109 65  1  0
110 21  1  0
111 22  1  0
112 23  1  0
112111  1  0
113 24  1  0
113110  1  0
M  END
$$$$
