
     RDKit          2D

 22 24  0  0  0  0  0  0  0  0999 V2000
    5.9471   -3.7578    0.0000 C   0  0  0  0  0  0  0  0  0  0  0  0
    5.6451   -2.6308    0.0000 C   0  0  0  0  0  0  0  0  0  0  0  0
    6.1237   -0.0260    0.0000 C   0  0  0  0  0  0  0  0  0  0  0  0
    1.4837   -0.0260    0.0000 C   0  0  0  0  0  0  0  0  0  0  0  0
    5.9401   -0.8303    0.0000 C   0  0  0  0  0  0  0  0  0  0  0  0
    1.6673   -0.8303    0.0000 C   0  0  0  0  0  0  0  0  0  0  0  0
    4.5181   -2.1078    0.0000 C   0  0  0  0  0  0  0  0  0  0  0  0
    5.5189    0.5352    0.0000 C   0  0  0  0  0  0  0  0  0  0  0  0
    2.0884    0.5352    0.0000 C   0  0  0  0  0  0  0  0  0  0  0  0
    5.1517   -1.0735    0.0000 C   0  0  0  0  0  0  0  0  0  0  0  0
    2.4556   -1.0735    0.0000 C   0  0  0  0  0  0  0  0  0  0  0  0
    3.8037   -1.6953    0.0000 C   0  0  0  0  0  0  0  0  0  0  0  0
    4.2162    0.9370    0.0000 C   0  0  0  0  0  0  0  0  0  0  0  0
    3.3912    0.9370    0.0000 C   0  0  0  0  0  0  0  0  0  0  0  0
    4.5181   -2.9328    0.0000 C   0  0  0  0  0  0  0  0  0  0  0  0
    4.7305    0.2920    0.0000 C   0  0  0  0  0  0  0  0  0  0  0  0
    2.8768    0.2920    0.0000 C   0  0  0  0  0  0  0  0  0  0  0  0
    4.5470   -0.5123    0.0000 C   0  0  0  0  0  0  0  0  0  0  0  0
    3.0604   -0.5123    0.0000 C   0  0  0  0  0  0  0  0  0  0  0  0
    3.8037   -0.8703    0.0000 C   0  0  0  0  0  0  0  0  0  0  0  0
    5.2326   -3.3453    0.0000 N   0  0  0  0  0  0  0  0  0  0  0  0
    4.8201   -4.0597    0.0000 O   0  0  0  0  0  0  0  0  0  0  0  0
  5  3  2  0
  6  4  2  0
  8  3  1  0
  9  4  1  0
 10  5  1  0
 11  6  1  0
 12  7  1  0
 14 13  1  0
 15  7  1  0
 16  8  2  0
 16 13  1  0
 17  9  2  0
 17 14  1  0
 18 10  2  0
 18 16  1  0
 19 11  2  0
 19 17  1  0
 20 12  2  0
 20 18  1  0
 20 19  1  0
 21  1  1  0
 21  2  1  0
 21 15  1  0
 22 21  1  0
M  CHG  2  21   1  22  -1
M  END
$$$$
