
     RDKit          2D

 89 94  0  0  0  0  0  0  0  0999 V2000
   -0.7774   -3.5511    0.0000 N   0  0  0  0  0  0  0  0  0  0  0  0
   -1.3649   -2.9635    0.0000 C   0  0  0  0  0  0  0  0  0  0  0  0
   -2.1052   -3.3406    0.0000 C   0  0  0  0  0  0  0  0  0  0  0  0
   -1.9753   -4.1613    0.0000 C   0  0  0  0  0  0  0  0  0  0  0  0
   -1.1546   -4.2912    0.0000 C   0  0  0  0  0  0  0  0  0  0  0  0
   -0.1367    1.6165    0.0000 C   0  0  0  0  0  0  0  0  0  0  0  0
    0.3592    1.1787    0.0000 O   0  0  0  0  0  0  0  0  0  0  0  0
   -0.1371    2.3039    0.0000 C   0  0  0  0  0  0  0  0  0  0  0  0
    0.5750    2.7205    0.0000 N   0  0  0  0  0  0  0  0  0  0  0  0
   -0.8538    2.7125    0.0000 C   0  0  0  0  0  0  0  0  0  0  0  0
   -0.8584    3.5375    0.0000 C   0  0  0  0  0  0  0  0  0  0  0  0
    1.2917    2.3119    0.0000 C   0  0  0  0  0  0  0  0  0  0  0  0
    2.0039    2.7284    0.0000 C   0  0  0  0  0  0  0  0  0  0  0  0
    1.2963    1.4869    0.0000 C   0  0  0  0  0  0  0  0  0  0  0  0
    0.8591    1.1165    0.0000 O   0  0  0  0  0  0  0  0  0  0  0  0
    2.1141    1.3779    0.0000 N   0  0  0  0  0  0  0  0  0  0  0  0
    1.9993    3.5534    0.0000 C   0  0  0  0  0  0  0  0  0  0  0  0
    2.7147    3.9654    0.0000 C   0  0  0  0  0  0  0  0  0  0  0  0
    2.7104    4.7896    0.0000 C   0  0  0  0  0  0  0  0  0  0  0  0
    1.9931    5.1989    0.0000 C   0  0  0  0  0  0  0  0  0  0  0  0
    1.2786    4.7779    0.0000 C   0  0  0  0  0  0  0  0  0  0  0  0
    1.2864    3.9552    0.0000 C   0  0  0  0  0  0  0  0  0  0  0  0
    1.9874    6.0239    0.0000 O   0  0  0  0  0  0  0  0  0  0  0  0
    2.1091    0.5540    0.0000 C   0  0  0  0  0  0  0  0  0  0  0  0
    2.8210    0.1372    0.0000 C   0  0  0  0  0  0  0  0  0  0  0  0
    1.3921    0.1458    0.0000 C   0  0  0  0  0  0  0  0  0  0  0  0
    0.6802    0.5627    0.0000 C   0  0  0  0  0  0  0  0  0  0  0  0
    1.3871   -0.6791    0.0000 C   0  0  0  0  0  0  0  0  0  0  0  0
    2.8160   -0.6877    0.0000 N   0  0  0  0  0  0  0  0  0  0  0  0
    3.5380    0.5453    0.0000 O   0  0  0  0  0  0  0  0  0  0  0  0
    3.5279   -1.1047    0.0000 C   0  0  0  0  0  0  0  0  0  0  0  0
    3.5229   -1.9297    0.0000 C   0  0  0  0  0  0  0  0  0  0  0  0
    4.2449   -0.6964    0.0000 C   0  0  0  0  0  0  0  0  0  0  0  0
    4.2499    0.1284    0.0000 C   0  0  0  0  0  0  0  0  0  0  0  0
    4.9669    0.5366    0.0000 C   0  0  0  0  0  0  0  0  0  0  0  0
    4.9719    1.3616    0.0000 N   0  0  0  0  0  0  0  0  0  0  0  0
    2.8059   -2.3377    0.0000 N   0  0  0  0  0  0  0  0  0  0  0  0
    4.2348   -2.3465    0.0000 O   0  0  0  0  0  0  0  0  0  0  0  0
    2.8007   -3.1626    0.0000 C   0  0  0  0  0  0  0  0  0  0  0  0
    2.0837   -3.5707    0.0000 C   0  0  0  0  0  0  0  0  0  0  0  0
    3.5126   -3.5795    0.0000 C   0  0  0  0  0  0  0  0  0  0  0  0
    3.5074   -4.4046    0.0000 C   0  0  0  0  0  0  0  0  0  0  0  0
    4.2193   -4.8215    0.0000 C   0  0  0  0  0  0  0  0  0  0  0  0
    2.7904   -4.8126    0.0000 C   0  0  0  0  0  0  0  0  0  0  0  0
    1.3718   -3.1536    0.0000 N   0  0  0  0  0  0  0  0  0  0  0  0
    2.0785   -4.3957    0.0000 O   0  0  0  0  0  0  0  0  0  0  0  0
    0.6548   -3.5617    0.0000 C   0  0  0  0  0  0  0  0  0  0  0  0
   -0.0570   -3.1447    0.0000 C   0  0  0  0  0  0  0  0  0  0  0  0
   -0.0518   -2.3196    0.0000 O   0  0  0  0  0  0  0  0  0  0  0  0
    0.6496   -4.3867    0.0000 C   0  0  0  0  0  0  0  0  0  0  0  0
   -0.0674   -4.7947    0.0000 C   0  0  0  0  0  0  0  0  0  0  0  0
   -0.7750   -4.3739    0.0000 C   0  0  0  0  0  0  0  0  0  0  0  0
   -1.4915   -4.7812    0.0000 C   0  0  0  0  0  0  0  0  0  0  0  0
   -1.4972   -5.6070    0.0000 C   0  0  0  0  0  0  0  0  0  0  0  0
   -0.7803   -6.0239    0.0000 C   0  0  0  0  0  0  0  0  0  0  0  0
   -0.0666   -5.6142    0.0000 C   0  0  0  0  0  0  0  0  0  0  0  0
   -1.3700   -2.1377    0.0000 C   0  0  0  0  0  0  0  0  0  0  0  0
   -0.6581   -1.7207    0.0000 O   0  0  0  0  0  0  0  0  0  0  0  0
   -2.0870   -1.7296    0.0000 N   0  0  0  0  0  0  0  0  0  0  0  0
   -2.0950   -0.9042    0.0000 C   0  0  0  0  0  0  0  0  0  0  0  0
   -1.3846   -0.4848    0.0000 C   0  0  0  0  0  0  0  0  0  0  0  0
   -2.8134   -0.4987    0.0000 C   0  0  0  0  0  0  0  0  0  0  0  0
   -0.6661   -0.8904    0.0000 O   0  0  0  0  0  0  0  0  0  0  0  0
   -1.3925    0.3400    0.0000 N   0  0  0  0  0  0  0  0  0  0  0  0
   -3.5239   -0.9182    0.0000 C   0  0  0  0  0  0  0  0  0  0  0  0
   -4.2426   -0.5136    0.0000 C   0  0  0  0  0  0  0  0  0  0  0  0
   -4.9526   -0.9324    0.0000 C   0  0  0  0  0  0  0  0  0  0  0  0
   -4.9450   -1.7582    0.0000 C   0  0  0  0  0  0  0  0  0  0  0  0
   -4.2216   -2.1636    0.0000 C   0  0  0  0  0  0  0  0  0  0  0  0
   -3.5146   -1.7424    0.0000 C   0  0  0  0  0  0  0  0  0  0  0  0
   -2.1117    0.7540    0.0000 C   0  0  0  0  0  0  0  0  0  0  0  0
   -2.1127    1.5790    0.0000 C   0  0  0  0  0  0  0  0  0  0  0  0
   -2.8256    0.3405    0.0000 C   0  0  0  0  0  0  0  0  0  0  0  0
   -3.5406    0.7521    0.0000 C   0  0  0  0  0  0  0  0  0  0  0  0
   -2.8277    1.9905    0.0000 O   0  0  0  0  0  0  0  0  0  0  0  0
   -1.3988    1.9924    0.0000 C   0  0  0  0  0  0  0  0  0  0  0  0
   -3.5428    1.5765    0.0000 C   0  0  0  0  0  0  0  0  0  0  0  0
   -4.2570    1.9880    0.0000 C   0  0  0  0  0  0  0  0  0  0  0  0
   -4.9719    1.5744    0.0000 C   0  0  0  0  0  0  0  0  0  0  0  0
   -4.9682    0.7452    0.0000 C   0  0  0  0  0  0  0  0  0  0  0  0
   -4.2535    0.3374    0.0000 C   0  0  0  0  0  0  0  0  0  0  0  0
   -0.6838    1.5808    0.0000 N   0  0  0  0  0  0  0  0  0  0  0  0
   -1.3998    2.8174    0.0000 C   0  0  0  0  0  0  0  0  0  0  0  0
   -2.1148    3.2290    0.0000 C   0  0  0  0  0  0  0  0  0  0  0  0
   -0.1463    3.9540    0.0000 C   0  0  0  0  0  0  0  0  0  0  0  0
   -0.1509    4.7789    0.0000 O   0  0  0  0  0  0  0  0  0  0  0  0
    0.5704    3.5454    0.0000 O   0  0  0  0  0  0  0  0  0  0  0  0
   -2.1158    4.0539    0.0000 N   0  0  0  0  0  0  0  0  0  0  0  0
   -2.8287    2.8156    0.0000 O   0  0  0  0  0  0  0  0  0  0  0  0
 40 45  1  0
  1  2  1  0
 40 46  2  0
 20 23  1  0
 45 47  1  0
  9 12  1  0
 47 48  1  0
 48  1  1  0
 16 24  1  0
 48 49  2  0
 47 50  1  6
 24 25  1  0
 50 51  1  0
 12 13  1  1
 51 52  2  0
 24 26  1  6
 52 53  1  0
  6  7  2  0
 53 54  2  0
 26 27  1  0
 54 55  1  0
 12 14  1  0
 55 56  2  0
 56 51  1  0
 26 28  1  0
  2 57  1  0
  2  3  1  1
 57 58  2  0
 25 29  1  0
 57 59  1  0
 14 15  2  0
 59 60  1  0
 25 30  2  0
 60 61  1  0
  6  8  1  0
 60 62  1  1
 29 31  1  0
 61 63  2  0
 14 16  1  0
 61 64  1  0
 31 32  1  0
 62 65  1  0
  3  4  1  0
 65 66  2  0
 31 33  1  1
 66 67  1  0
 13 17  1  0
 67 68  2  0
 33 34  1  0
 68 69  1  0
  8  9  1  0
 69 70  2  0
 70 65  1  0
 34 35  1  0
 64 71  1  0
 17 18  2  0
 71 72  1  0
 35 36  1  0
 71 73  1  6
  4  5  1  0
 73 74  1  0
 32 37  1  0
 72 75  2  0
 18 19  1  0
 72 76  1  0
 32 38  2  0
 74 77  2  0
  8 10  1  6
 77 78  1  0
 37 39  1  0
 78 79  2  0
 19 20  2  0
 79 80  1  0
 39 40  1  0
 80 81  2  0
 81 74  1  0
  5  1  1  0
 76 82  1  0
 82  6  1  0
 39 41  1  1
 76 83  1  6
 20 21  1  0
 83 84  1  0
 41 42  1  0
 11 85  1  0
 10 11  1  0
 85 86  2  0
 42 43  1  0
 85 87  1  0
 21 22  2  0
 84 88  1  0
 42 44  1  0
 84 89  2  0
 22 17  1  0
M  END
$$$$
