
     RDKit          2D

 36 39  0  0  0  0  0  0  0  0999 V2000
   -4.6811   -5.6018    0.0000 C   0  0  0  0  0  0  0  0  0  0  0  0
   -4.9361   -4.8172    0.0000 C   0  0  0  0  0  0  0  0  0  0  0  0
   -4.3840   -4.2041    0.0000 C   0  0  0  0  0  0  0  0  0  0  0  0
   -4.6390   -3.4195    0.0000 C   0  0  0  0  0  0  0  0  0  0  0  0
   -4.0869   -2.8064    0.0000 C   0  0  0  0  0  0  0  0  0  0  0  0
   -4.3419   -2.0218    0.0000 C   0  0  0  0  0  0  0  0  0  0  0  0
   -3.7898   -1.4087    0.0000 C   0  0  0  0  0  0  0  0  0  0  0  0
   -2.9829   -1.5802    0.0000 O   0  0  0  0  0  0  0  0  0  0  0  0
   -4.0448   -0.6241    0.0000 O   0  0  0  0  0  0  0  0  0  0  0  0
   -3.4927   -0.0110    0.0000 C   0  0  0  0  0  0  0  0  0  0  0  0
   -3.7477    0.7736    0.0000 C   0  0  0  0  0  0  0  0  0  0  0  0
   -3.1956    1.3867    0.0000 C   0  0  0  0  0  0  0  0  0  0  0  0
   -2.3887    1.2151    0.0000 C   0  0  0  0  0  0  0  0  0  0  0  0
   -2.1337    0.4305    0.0000 C   0  0  0  0  0  0  0  0  0  0  0  0
   -2.6858   -0.1825    0.0000 C   0  0  0  0  0  0  0  0  0  0  0  0
   -1.3268    0.2590    0.0000 C   0  0  0  0  0  0  0  0  0  0  0  0
   -0.7747    0.8721    0.0000 C   0  0  0  0  0  0  0  0  0  0  0  0
   -1.0297    1.6567    0.0000 C   0  0  0  0  0  0  0  0  0  0  0  0
   -1.8366    1.8282    0.0000 C   0  0  0  0  0  0  0  0  0  0  0  0
   -2.0916    2.6128    0.0000 C   0  0  0  0  0  0  0  0  0  0  0  0
   -1.5396    3.2259    0.0000 C   0  0  0  0  0  0  0  0  0  0  0  0
   -0.7326    3.0544    0.0000 C   0  0  0  0  0  0  0  0  0  0  0  0
   -0.4776    2.2698    0.0000 C   0  0  0  0  0  0  0  0  0  0  0  0
    0.3473    2.2698    0.0000 C   0  0  0  0  0  0  0  0  0  0  0  0
    0.6022    3.0544    0.0000 C   0  0  0  0  0  0  0  0  0  0  0  0
   -0.0651    3.5393    0.0000 C   0  0  0  0  0  0  0  0  0  0  0  0
   -0.0651    4.3643    0.0000 O   0  0  0  0  0  0  0  0  0  0  0  0
    0.6492    4.7768    0.0000 C   0  0  0  0  0  0  0  0  0  0  0  0
    0.6492    5.6018    0.0000 O   0  0  0  0  0  0  0  0  0  0  0  0
    1.3637    4.3643    0.0000 C   0  0  0  0  0  0  0  0  0  0  0  0
    2.0782    4.7768    0.0000 C   0  0  0  0  0  0  0  0  0  0  0  0
    2.7926    4.3643    0.0000 C   0  0  0  0  0  0  0  0  0  0  0  0
    3.5071    4.7768    0.0000 C   0  0  0  0  0  0  0  0  0  0  0  0
    4.2216    4.3643    0.0000 C   0  0  0  0  0  0  0  0  0  0  0  0
    4.9361    4.7768    0.0000 C   0  0  0  0  0  0  0  0  0  0  0  0
   -0.9041    3.8614    0.0000 C   0  0  0  0  0  0  0  0  0  0  0  0
  1  2  1  0
  2  3  1  0
  3  4  1  0
  4  5  1  0
  5  6  1  0
  6  7  1  0
  7  8  2  0
  7  9  1  0
  9 10  1  0
 10 11  2  0
 11 12  1  0
 12 13  2  0
 13 14  1  0
 14 15  2  0
 10 15  1  0
 14 16  1  0
 16 17  1  0
 18 17  1  6
 18 19  1  0
 19 13  1  0
 19 20  1  1
 20 21  1  0
 21 22  1  0
 22 23  1  0
 18 23  1  0
 23 24  1  1
 24 25  1  0
 25 26  1  0
 22 26  1  0
 26 27  1  1
 27 28  1  0
 28 29  2  0
 28 30  1  0
 30 31  1  0
 31 32  1  0
 32 33  1  0
 33 34  1  0
 34 35  1  0
 22 36  1  1
M  END
$$$$
