
     RDKit          2D

 33 36  0  0  1  0  0  0  0  0999 V2000
   11.0730   -3.4133    0.0000 C   0  0  0  0  0  0  0  0  0  0  0  0
   11.7874   -3.8258    0.0000 C   0  0  0  0  0  0  0  0  0  0  0  0
   12.5019   -3.4133    0.0000 C   0  0  0  0  0  0  0  0  0  0  0  0
   13.2164   -3.8258    0.0000 C   0  0  0  0  0  0  0  0  0  0  0  0
   13.9309   -3.4133    0.0000 C   0  0  0  0  0  0  0  0  0  0  0  0
   14.6453   -3.8258    0.0000 C   0  0  0  0  0  0  0  0  0  0  0  0
   15.3598   -3.4133    0.0000 C   0  0  0  0  0  0  0  0  0  0  0  0
   16.0743   -3.8258    0.0000 C   0  0  0  0  0  0  0  0  0  0  0  0
   16.7887   -3.4133    0.0000 C   0  0  0  0  0  0  0  0  0  0  0  0
   17.5032   -3.8258    0.0000 C   0  0  0  0  0  0  0  0  0  0  0  0
   18.2177   -3.4133    0.0000 C   0  0  0  0  0  0  0  0  0  0  0  0
   18.2177   -2.5883    0.0000 O   0  0  0  0  0  0  0  0  0  0  0  0
   18.9322   -3.8258    0.0000 O   0  0  0  0  0  0  0  0  0  0  0  0
   19.6466   -3.4133    0.0000 C   0  0  0  0  0  0  0  0  0  0  0  0
   19.7329   -2.5929    0.0000 C   0  0  0  0  0  0  0  0  0  0  0  0
   20.5398   -2.4213    0.0000 C   0  0  0  0  0  0  0  0  0  0  0  0
   20.9523   -3.1358    0.0000 C   0  0  0  0  0  0  0  0  0  0  0  0
   20.4003   -3.7489    0.0000 C   0  0  0  0  0  0  0  0  0  0  0  0
   20.6552   -4.5335    0.0000 C   0  0  0  0  0  0  0  0  0  0  0  0
   21.4622   -4.7050    0.0000 C   0  0  0  0  0  0  0  0  0  0  0  0
   22.0142   -4.0920    0.0000 C   0  0  0  0  0  0  0  0  0  0  0  0
   21.7593   -3.3073    0.0000 C   0  0  0  0  0  0  0  0  0  0  0  0
   22.3113   -2.6942    0.0000 C   0  0  0  0  0  0  0  0  0  0  0  0
   23.1183   -2.8658    0.0000 C   0  0  0  0  0  0  0  0  0  0  0  0
   23.3732   -3.6504    0.0000 C   0  0  0  0  0  0  0  0  0  0  0  0
   24.1802   -3.8219    0.0000 C   0  0  0  0  0  0  0  0  0  0  0  0
   24.4352   -4.6065    0.0000 C   0  0  0  0  0  0  0  0  0  0  0  0
   25.2421   -4.7781    0.0000 O   0  0  0  0  0  0  0  0  0  0  0  0
   23.8831   -5.2196    0.0000 C   0  0  0  0  0  0  0  0  0  0  0  0
   23.0762   -5.0481    0.0000 C   0  0  0  0  0  0  0  0  0  0  0  0
   22.8212   -4.2635    0.0000 C   0  0  0  0  0  0  0  0  0  0  0  0
   22.2692   -4.8766    0.0000 C   0  0  0  0  0  0  0  0  0  0  0  0
   19.7872   -4.3009    0.0000 C   0  0  0  0  0  0  0  0  0  0  0  0
  1  2  1  0
  2  3  1  0
  3  4  1  0
  4  5  1  0
  5  6  1  0
  6  7  1  0
  7  8  1  0
  8  9  1  0
  9 10  1  0
 10 11  1  0
 11 12  2  0
 11 13  1  0
 14 13  1  1
 14 15  1  0
 15 16  1  0
 17 16  1  1
 17 18  1  0
 14 18  1  0
 18 19  1  0
 19 20  1  0
 21 20  1  1
 21 22  1  0
 17 22  1  0
 22 23  1  6
 23 24  1  0
 24 25  1  0
 25 26  2  0
 26 27  1  0
 27 28  2  0
 27 29  1  0
 29 30  1  0
 30 31  1  0
 21 31  1  0
 25 31  1  0
 31 32  1  1
 18 33  1  1
M  END
$$$$
