
     RDKit          2D

 85 84  0  0  0  0  0  0  0  0999 V2000
  -15.8215   -8.4171    0.0000 C   0  0  0  0  0  0  0  0  0  0  0  0
  -15.4090   -7.7026    0.0000 C   0  0  0  0  0  0  0  0  0  0  0  0
  -14.5840   -7.7026    0.0000 C   0  0  0  0  0  0  0  0  0  0  0  0
  -14.1715   -6.9881    0.0000 C   0  0  0  0  0  0  0  0  0  0  0  0
  -13.3465   -6.9881    0.0000 C   0  0  0  0  0  0  0  0  0  0  0  0
  -12.9340   -6.2737    0.0000 C   0  0  0  0  0  0  0  0  0  0  0  0
  -12.1090   -6.2737    0.0000 C   0  0  0  0  0  0  0  0  0  0  0  0
  -11.6965   -5.5592    0.0000 C   0  0  0  0  0  0  0  0  0  0  0  0
  -10.8715   -5.5592    0.0000 C   0  0  0  0  0  0  0  0  0  0  0  0
  -10.4590   -4.8447    0.0000 C   0  0  0  0  0  0  0  0  0  0  0  0
   -9.6340   -4.8447    0.0000 C   0  0  0  0  0  0  0  0  0  0  0  0
   -9.2215   -4.1303    0.0000 C   0  0  0  0  0  0  0  0  0  0  0  0
   -8.3965   -4.1303    0.0000 C   0  0  0  0  0  0  0  0  0  0  0  0
   -7.9840   -3.4158    0.0000 C   0  0  0  0  0  0  0  0  0  0  0  0
   -7.1590   -3.4158    0.0000 C   0  0  0  0  0  0  0  0  0  0  0  0
   -6.7465   -2.7013    0.0000 C   0  0  0  0  0  0  0  0  0  0  0  0
   -7.1590   -1.9868    0.0000 O   0  0  0  0  0  0  0  0  0  0  0  0
   -5.9215   -2.7013    0.0000 O   0  0  0  0  0  0  0  0  0  0  0  0
   -5.5090   -1.9868    0.0000 C   0  0  0  0  0  0  0  0  0  0  0  0
   -4.6840   -1.9868    0.0000 C   0  0  0  0  0  0  0  0  0  0  0  0
   -4.2715   -1.2724    0.0000 C   0  0  0  0  0  0  0  0  0  0  0  0
   -3.4465   -1.2724    0.0000 O   0  0  0  0  0  0  0  0  0  0  0  0
   -3.0340   -0.5579    0.0000 P   0  0  0  0  0  0  0  0  0  0  0  0
   -2.3195   -0.9704    0.0000 O   0  0  0  0  0  0  0  0  0  0  0  0
   -3.7484   -0.1454    0.0000 O   0  0  0  0  0  0  0  0  0  0  0  0
   -2.6215    0.1566    0.0000 O   0  0  0  0  0  0  0  0  0  0  0  0
   -1.7965    0.1566    0.0000 C   0  0  0  0  0  0  0  0  0  0  0  0
   -1.3840    0.8710    0.0000 C   0  0  0  0  0  0  0  0  0  0  0  0
   -0.5590    0.8710    0.0000 N   0  0  0  0  0  0  0  0  0  0  0  0
   -0.1465    1.5855    0.0000 C   0  0  0  0  0  0  0  0  0  0  0  0
   -0.5590    2.3000    0.0000 O   0  0  0  0  0  0  0  0  0  0  0  0
    0.6785    1.5855    0.0000 C   0  0  0  0  0  0  0  0  0  0  0  0
    1.0910    0.8710    0.0000 C   0  0  0  0  0  0  0  0  0  0  0  0
    1.0910    2.3000    0.0000 N   0  0  0  0  0  0  0  0  0  0  0  0
    1.9160    2.3000    0.0000 C   0  0  0  0  0  0  0  0  0  0  0  0
    2.3285    1.5855    0.0000 O   0  0  0  0  0  0  0  0  0  0  0  0
    2.3285    3.0144    0.0000 C   0  0  0  0  0  0  0  0  0  0  0  0
    3.1535    3.0144    0.0000 C   0  0  0  0  0  0  0  0  0  0  0  0
    3.5660    3.7289    0.0000 C   0  0  0  0  0  0  0  0  0  0  0  0
    3.1535    4.4434    0.0000 C   0  0  0  0  0  0  0  0  0  0  0  0
    3.5660    5.1579    0.0000 O   0  0  0  0  0  0  0  0  0  0  0  0
    2.3285    4.4434    0.0000 N   0  0  0  0  0  0  0  0  0  0  0  0
    4.3910    3.7289    0.0000 N   0  0  0  0  0  0  0  0  0  0  0  0
    4.8035    4.4434    0.0000 C   0  0  0  0  0  0  0  0  0  0  0  0
    4.3910    5.1579    0.0000 O   0  0  0  0  0  0  0  0  0  0  0  0
    5.6285    4.4434    0.0000 C   0  0  0  0  0  0  0  0  0  0  0  0
    6.0410    3.7289    0.0000 C   0  0  0  0  0  0  0  0  0  0  0  0
    6.0410    5.1579    0.0000 N   0  0  0  0  0  0  0  0  0  0  0  0
    6.8660    5.1579    0.0000 C   0  0  0  0  0  0  0  0  0  0  0  0
    7.2785    4.4434    0.0000 O   0  0  0  0  0  0  0  0  0  0  0  0
    7.2785    5.8723    0.0000 C   0  0  0  0  0  0  0  0  0  0  0  0
    6.8660    6.5868    0.0000 C   0  0  0  0  0  0  0  0  0  0  0  0
    8.1035    5.8723    0.0000 O   0  0  0  0  0  0  0  0  0  0  0  0
    8.5160    6.5868    0.0000 C   0  0  0  0  0  0  0  0  0  0  0  0
    9.3410    6.5868    0.0000 C   0  0  0  0  0  0  0  0  0  0  0  0
    9.7535    5.8723    0.0000 C   0  0  0  0  0  0  0  0  0  0  0  0
    9.3410    5.1579    0.0000 O   0  0  0  0  0  0  0  0  0  0  0  0
    9.7535    7.3013    0.0000 N   0  0  0  0  0  0  0  0  0  0  0  0
   10.5785    7.3013    0.0000 C   0  0  0  0  0  0  0  0  0  0  0  0
   10.9910    8.0157    0.0000 O   0  0  0  0  0  0  0  0  0  0  0  0
   10.9910    6.5868    0.0000 C   0  0  0  0  0  0  0  0  0  0  0  0
    8.1035    7.3013    0.0000 C   0  0  0  0  0  0  0  0  0  0  0  0
    8.5160    8.0157    0.0000 C   0  0  0  0  0  0  0  0  0  0  0  0
    8.1035    8.7302    0.0000 C   0  0  0  0  0  0  0  0  0  0  0  0
    8.5160    9.4447    0.0000 O   0  0  0  0  0  0  0  0  0  0  0  0
    9.3410    8.0157    0.0000 O   0  0  0  0  0  0  0  0  0  0  0  0
    7.2785    7.3013    0.0000 O   0  0  0  0  0  0  0  0  0  0  0  0
   -4.2715   -2.7013    0.0000 O   0  0  0  0  0  0  0  0  0  0  0  0
   -3.4465   -2.7013    0.0000 C   0  0  0  0  0  0  0  0  0  0  0  0
   -3.0340   -1.9868    0.0000 O   0  0  0  0  0  0  0  0  0  0  0  0
   -3.0340   -3.4158    0.0000 C   0  0  0  0  0  0  0  0  0  0  0  0
   -2.2090   -3.4158    0.0000 C   0  0  0  0  0  0  0  0  0  0  0  0
   -1.7965   -4.1303    0.0000 C   0  0  0  0  0  0  0  0  0  0  0  0
   -0.9715   -4.1303    0.0000 C   0  0  0  0  0  0  0  0  0  0  0  0
   -0.5590   -4.8447    0.0000 C   0  0  0  0  0  0  0  0  0  0  0  0
    0.2660   -4.8447    0.0000 C   0  0  0  0  0  0  0  0  0  0  0  0
    0.6785   -5.5592    0.0000 C   0  0  0  0  0  0  0  0  0  0  0  0
    1.5035   -5.5592    0.0000 C   0  0  0  0  0  0  0  0  0  0  0  0
    1.9160   -6.2737    0.0000 C   0  0  0  0  0  0  0  0  0  0  0  0
    2.7410   -6.2737    0.0000 C   0  0  0  0  0  0  0  0  0  0  0  0
    3.1535   -6.9881    0.0000 C   0  0  0  0  0  0  0  0  0  0  0  0
    3.9785   -6.9881    0.0000 C   0  0  0  0  0  0  0  0  0  0  0  0
    4.3910   -7.7026    0.0000 C   0  0  0  0  0  0  0  0  0  0  0  0
    5.2160   -7.7026    0.0000 C   0  0  0  0  0  0  0  0  0  0  0  0
    5.6285   -8.4171    0.0000 C   0  0  0  0  0  0  0  0  0  0  0  0
  1  2  1  0
  2  3  1  0
  3  4  1  0
  4  5  1  0
  5  6  1  0
  6  7  1  0
  7  8  1  0
  8  9  1  0
  9 10  1  0
 10 11  1  0
 11 12  1  0
 12 13  1  0
 13 14  1  0
 14 15  1  0
 15 16  1  0
 16 17  2  0
 16 18  1  0
 18 19  1  0
 20 19  1  6
 20 21  1  0
 21 22  1  0
 22 23  1  0
 23 24  2  0
 23 25  1  0
 23 26  1  0
 26 27  1  0
 27 28  1  0
 28 29  1  0
 29 30  1  0
 30 31  2  0
 30 32  1  0
 32 33  1  1
 32 34  1  0
 34 35  1  0
 35 36  2  0
 35 37  1  0
 37 38  1  0
 39 38  1  6
 39 40  1  0
 40 41  2  0
 40 42  1  0
 39 43  1  0
 43 44  1  0
 44 45  2  0
 44 46  1  0
 46 47  1  1
 46 48  1  0
 48 49  1  0
 49 50  2  0
 49 51  1  0
 51 52  1  1
 51 53  1  0
 54 53  1  1
 54 55  1  0
 55 56  1  1
 56 57  2  0
 55 58  1  0
 58 59  1  0
 59 60  2  0
 59 61  1  0
 54 62  1  0
 62 63  1  0
 63 64  1  0
 64 65  1  0
 63 66  1  1
 62 67  1  6
 20 68  1  0
 68 69  1  0
 69 70  2  0
 69 71  1  0
 71 72  1  0
 72 73  1  0
 73 74  1  0
 74 75  1  0
 75 76  1  0
 76 77  1  0
 77 78  1  0
 78 79  1  0
 79 80  1  0
 80 81  1  0
 81 82  1  0
 82 83  1  0
 83 84  1  0
 84 85  1  0
M  CHG  1  25  -1
M  END
$$$$
