
     RDKit          2D

 27 30  0  0  0  0  0  0  0  0999 V2000
    0.7115    1.6595    0.0000 C   0  0  0  0  0  0  0  0  0  0  0  0
    0.7115    0.8344    0.0000 C   0  0  0  0  0  0  0  0  0  0  0  0
    1.4242    1.2500    0.0000 C   0  0  0  0  0  0  0  0  0  0  0  0
    0.7115    0.0010    0.0000 C   0  0  0  0  0  0  0  0  0  0  0  0
   -0.0009    1.2500    0.0000 C   0  0  0  0  0  0  0  0  0  0  0  0
    2.1387    1.6616    0.0000 O   0  0  0  0  0  0  0  0  0  0  0  0
    1.4242    2.0752    0.0000 C   0  0  0  0  0  0  0  0  0  0  0  0
    2.1367    0.8344    0.0000 C   0  0  0  0  0  0  0  0  0  0  0  0
   -0.0009   -0.4146    0.0000 C   0  0  0  0  0  0  0  0  0  0  0  0
    2.1367    0.0010    0.0000 C   0  0  0  0  0  0  0  0  0  0  0  0
   -0.7135    0.8344    0.0000 C   0  0  0  0  0  0  0  0  0  0  0  0
    2.8533    1.2500    0.0000 C   0  0  0  0  0  0  0  0  0  0  0  0
    2.1387    2.4867    0.0000 C   0  0  0  0  0  0  0  0  0  0  0  0
    0.7094    2.4867    0.0000 O   0  0  0  0  0  0  0  0  0  0  0  0
   -0.7135    0.0010    0.0000 C   0  0  0  0  0  0  0  0  0  0  0  0
   -0.0009   -1.2459    0.0000 C   0  0  0  0  0  0  0  0  0  0  0  0
    3.5678    1.6616    0.0000 C   0  0  0  0  0  0  0  0  0  0  0  0
    2.8533    0.4249    0.0000 O   0  0  0  0  0  0  0  0  0  0  0  0
   -1.4262   -0.4146    0.0000 C   0  0  0  0  0  0  0  0  0  0  0  0
   -0.7135   -1.6616    0.0000 C   0  0  0  0  0  0  0  0  0  0  0  0
   -1.4262   -1.2459    0.0000 C   0  0  0  0  0  0  0  0  0  0  0  0
   -2.1407    0.0010    0.0000 C   0  0  0  0  0  0  0  0  0  0  0  0
   -0.7135   -2.4867    0.0000 C   0  0  0  0  0  0  0  0  0  0  0  0
   -2.1407   -1.6616    0.0000 C   0  0  0  0  0  0  0  0  0  0  0  0
   -2.8532   -0.4146    0.0000 C   0  0  0  0  0  0  0  0  0  0  0  0
   -2.8532   -1.2459    0.0000 C   0  0  0  0  0  0  0  0  0  0  0  0
   -3.5678   -1.6575    0.0000 O   0  0  0  0  0  0  0  0  0  0  0  0
  2  1  1  1
  2  3  1  0
  4  2  1  0
  2  5  1  0
  3  6  1  6
  3  7  1  0
  3  8  1  0
  9  4  1  0
  4 10  1  1
  5 11  1  0
  6 12  1  0
  7 13  1  0
  7 14  2  0
  8 10  1  0
 15  9  1  0
  9 16  1  6
 15 11  1  1
 12 17  1  0
 12 18  2  0
 15 19  1  0
 16 20  2  0
 19 21  1  0
 19 22  1  6
 20 21  1  0
 20 23  1  0
 21 24  2  0
 22 25  1  0
 24 26  1  0
 25 26  1  0
 26 27  2  0
M  END
$$$$
