
     RDKit          2D

 10  9  0  0  0  0  0  0  0  0999 V2000
    6.5152    0.4300    0.0000 C   0  0  0  0  0  0  0  0  0  0  0  0
    6.5152    1.2462    0.0000 O   0  0  0  0  0  0  0  0  0  0  0  0
    7.1711    0.0072    0.0000 O   0  0  0  0  0  0  0  0  0  0  0  0
    5.8156    0.0072    0.0000 C   0  0  0  0  0  0  0  0  0  0  0  0
    5.0577    0.3716    0.0000 C   0  0  0  0  0  0  0  0  0  0  0  0
    4.3580   -0.0511    0.0000 C   0  0  0  0  0  0  0  0  0  0  0  0
    3.5564    0.4882    0.0000 C   0  0  0  0  0  0  0  0  0  0  0  0
    5.8156   -0.8089    0.0000 C   0  0  0  0  0  0  0  0  0  0  0  0
    6.5881   -1.2462    0.0000 C   0  0  0  0  0  0  0  0  0  0  0  0
    7.2877   -0.8089    0.0000 C   0  0  0  0  0  0  0  0  0  0  0  0
  1  2  2  0
  1  3  1  0
  1  4  1  0
  4  5  1  0
  4  8  1  0
  5  6  1  0
  6  7  1  0
  8  9  1  0
  9 10  1  0
M  CHG  1   3  -1
M  END
$$$$
