
     RDKit          2D

  9  8  0  0  0  0  0  0  0  0999 V2000
   -1.4279   -0.0063    0.0000 O   0  0  0  0  0  0  0  0  0  0  0  0
   -0.7139    0.4070    0.0000 C   0  0  0  0  0  0  0  0  0  0  0  0
    0.0000   -0.0020    0.0000 C   0  0  0  0  0  0  0  0  0  0  0  0
    0.7139    0.4113    0.0000 N   0  0  0  0  0  0  0  0  0  0  0  0
    1.4279    0.0020    0.0000 O   0  0  0  0  0  0  0  0  0  0  0  0
   -0.7180   -0.4113    0.0000 C   0  0  0  0  0  0  0  0  0  0  0  0
    0.7139   -0.4155    0.0000 Br  0  0  0  0  0  0  0  0  0  0  0  0
   -0.7222   -1.2379    0.0000 O   0  0  0  0  0  0  0  0  0  0  0  0
    0.7121    1.2379    0.0000 O   0  0  0  0  0  0  0  0  0  0  0  0
  4  5  1  0
  2  3  1  0
  3  6  1  0
  1  2  1  0
  3  7  1  0
  3  4  1  0
  6  8  1  0
  4  9  2  0
M  CHG  2   4   1   5  -1
M  END
$$$$
