
     RDKit          2D

100105  0  0  0  0  0  0  0  0999 V2000
   -2.4891    3.2218    0.0000 C   0  0  0  0  0  0  0  0  0  0  0  0
   -2.6597   -1.9274    0.0000 C   0  0  0  0  0  0  0  0  0  0  0  0
    4.1352   -4.1352    0.0000 C   0  0  0  0  0  0  0  0  0  0  0  0
    4.3901   -3.3506    0.0000 C   0  0  0  0  0  0  0  0  0  0  0  0
    3.3282   -4.3067    0.0000 C   0  0  0  0  0  0  0  0  0  0  0  0
    4.5662    4.5059    0.0000 C   0  0  0  0  0  0  0  0  0  0  0  0
    4.5662    5.3309    0.0000 C   0  0  0  0  0  0  0  0  0  0  0  0
   -0.9173    5.7472    0.0000 C   0  0  0  0  0  0  0  0  0  0  0  0
   -0.6624    6.5318    0.0000 C   0  0  0  0  0  0  0  0  0  0  0  0
    3.8381   -2.7375    0.0000 C   0  0  0  0  0  0  0  0  0  0  0  0
    2.7762   -3.6937    0.0000 C   0  0  0  0  0  0  0  0  0  0  0  0
    3.8517    4.0934    0.0000 C   0  0  0  0  0  0  0  0  0  0  0  0
    3.8517    5.7434    0.0000 C   0  0  0  0  0  0  0  0  0  0  0  0
   -0.3653    5.1341    0.0000 C   0  0  0  0  0  0  0  0  0  0  0  0
    2.4370   -0.1136    0.0000 C   0  0  0  0  0  0  0  0  0  0  0  0
    3.4989    0.8425    0.0000 C   0  0  0  0  0  0  0  0  0  0  0  0
    2.9890   -0.7267    0.0000 C   0  0  0  0  0  0  0  0  0  0  0  0
    4.0509    0.2294    0.0000 C   0  0  0  0  0  0  0  0  0  0  0  0
   -1.2144    7.1449    0.0000 C   0  0  0  0  0  0  0  0  0  0  0  0
   -0.0770   -5.1148    0.0000 C   0  0  0  0  0  0  0  0  0  0  0  0
   -0.4084   -3.5559    0.0000 C   0  0  0  0  0  0  0  0  0  0  0  0
   -0.5264   -5.8067    0.0000 C   0  0  0  0  0  0  0  0  0  0  0  0
   -1.1003   -3.1066    0.0000 C   0  0  0  0  0  0  0  0  0  0  0  0
   -2.0853   -6.1381    0.0000 C   0  0  0  0  0  0  0  0  0  0  0  0
   -2.6593   -3.4379    0.0000 C   0  0  0  0  0  0  0  0  0  0  0  0
   -2.7772   -5.6888    0.0000 C   0  0  0  0  0  0  0  0  0  0  0  0
   -3.1086   -4.1298    0.0000 C   0  0  0  0  0  0  0  0  0  0  0  0
    2.4791   -2.2959    0.0000 C   0  0  0  0  0  0  0  0  0  0  0  0
    2.1399    1.2840    0.0000 C   0  0  0  0  0  0  0  0  0  0  0  0
    2.0977    3.4664    0.0000 C   0  0  0  0  0  0  0  0  0  0  0  0
    1.8677    4.9184    0.0000 C   0  0  0  0  0  0  0  0  0  0  0  0
    0.3553   -4.2082    0.0000 C   0  0  0  0  0  0  0  0  0  0  0  0
   -1.1787   -6.5705    0.0000 C   0  0  0  0  0  0  0  0  0  0  0  0
   -2.0069   -2.6741    0.0000 C   0  0  0  0  0  0  0  0  0  0  0  0
   -3.5410   -5.0364    0.0000 C   0  0  0  0  0  0  0  0  0  0  0  0
    0.5681   -1.2413    0.0000 C   0  0  0  0  0  0  0  0  0  0  0  0
   -0.5359   -0.0151    0.0000 C   0  0  0  0  0  0  0  0  0  0  0  0
   -1.9371    2.6087    0.0000 C   0  0  0  0  0  0  0  0  0  0  0  0
   -3.2117   -1.3143    0.0000 C   0  0  0  0  0  0  0  0  0  0  0  0
    3.0311   -2.9090    0.0000 C   0  0  0  0  0  0  0  0  0  0  0  0
    2.6919    0.6709    0.0000 C   0  0  0  0  0  0  0  0  0  0  0  0
    2.3526    4.2510    0.0000 C   0  0  0  0  0  0  0  0  0  0  0  0
    3.7960   -0.5552    0.0000 C   0  0  0  0  0  0  0  0  0  0  0  0
    3.1373    4.5059    0.0000 C   0  0  0  0  0  0  0  0  0  0  0  0
    3.1373    5.3309    0.0000 C   0  0  0  0  0  0  0  0  0  0  0  0
   -0.6202    4.3495    0.0000 C   0  0  0  0  0  0  0  0  0  0  0  0
    1.6721   -2.4675    0.0000 C   0  0  0  0  0  0  0  0  0  0  0  0
    1.3329    1.1125    0.0000 C   0  0  0  0  0  0  0  0  0  0  0  0
    1.2907    3.2948    0.0000 C   0  0  0  0  0  0  0  0  0  0  0  0
    0.8230   -0.4567    0.0000 C   0  0  0  0  0  0  0  0  0  0  0  0
   -1.0879    0.5979    0.0000 C   0  0  0  0  0  0  0  0  0  0  0  0
    0.6102   -3.4236    0.0000 C   0  0  0  0  0  0  0  0  0  0  0  0
   -1.7918   -7.1226    0.0000 C   0  0  0  0  0  0  0  0  0  0  0  0
   -1.3938   -2.1221    0.0000 C   0  0  0  0  0  0  0  0  0  0  0  0
   -4.0931   -4.4233    0.0000 C   0  0  0  0  0  0  0  0  0  0  0  0
   -1.1301    2.7802    0.0000 C   0  0  0  0  0  0  0  0  0  0  0  0
   -2.9568   -0.5297    0.0000 C   0  0  0  0  0  0  0  0  0  0  0  0
   -1.4272    4.1780    0.0000 C   0  0  0  0  0  0  0  0  0  0  0  0
    1.1201   -1.8544    0.0000 C   0  0  0  0  0  0  0  0  0  0  0  0
    1.5878    1.8971    0.0000 C   0  0  0  0  0  0  0  0  0  0  0  0
    0.7387    3.9079    0.0000 C   0  0  0  0  0  0  0  0  0  0  0  0
    1.6300   -0.2851    0.0000 C   0  0  0  0  0  0  0  0  0  0  0  0
   -1.8949    0.4264    0.0000 C   0  0  0  0  0  0  0  0  0  0  0  0
   -1.3850    1.9956    0.0000 C   0  0  0  0  0  0  0  0  0  0  0  0
   -3.5088    0.0833    0.0000 C   0  0  0  0  0  0  0  0  0  0  0  0
   -0.9595    7.9295    0.0000 N   0  0  0  0  0  0  0  0  0  0  0  0
    2.3526    5.5859    0.0000 N   0  0  0  0  0  0  0  0  0  0  0  0
    1.4172   -3.2521    0.0000 N   0  0  0  0  0  0  0  0  0  0  0  0
   -0.0682    3.7364    0.0000 N   0  0  0  0  0  0  0  0  0  0  0  0
    1.8849    0.4994    0.0000 N   0  0  0  0  0  0  0  0  0  0  0  0
    1.0358    2.5102    0.0000 N   0  0  0  0  0  0  0  0  0  0  0  0
    1.3750   -1.0697    0.0000 N   0  0  0  0  0  0  0  0  0  0  0  0
   -0.8330    1.3825    0.0000 N   0  0  0  0  0  0  0  0  0  0  0  0
   -1.6821    3.3933    0.0000 N   0  0  0  0  0  0  0  0  0  0  0  0
   -2.1498   -0.3581    0.0000 N   0  0  0  0  0  0  0  0  0  0  0  0
   -0.4516   -4.3798    0.0000 N   0  0  0  0  0  0  0  0  0  0  0  0
   -1.3502   -5.7636    0.0000 N   0  0  0  0  0  0  0  0  0  0  0  0
   -1.8354   -3.4811    0.0000 N   0  0  0  0  0  0  0  0  0  0  0  0
   -2.7340   -4.8649    0.0000 N   0  0  0  0  0  0  0  0  0  0  0  0
   -2.1920    1.8241    0.0000 O   0  0  0  0  0  0  0  0  0  0  0  0
   -4.0187   -1.4858    0.0000 O   0  0  0  0  0  0  0  0  0  0  0  0
    4.3480   -1.1683    0.0000 O   0  0  0  0  0  0  0  0  0  0  0  0
    0.0582   -2.8105    0.0000 O   0  0  0  0  0  0  0  0  0  0  0  0
   -1.6203   -7.9295    0.0000 O   0  0  0  0  0  0  0  0  0  0  0  0
   -2.5764   -6.8676    0.0000 O   0  0  0  0  0  0  0  0  0  0  0  0
   -1.5654   -1.3151    0.0000 O   0  0  0  0  0  0  0  0  0  0  0  0
   -0.6092   -2.3770    0.0000 O   0  0  0  0  0  0  0  0  0  0  0  0
   -4.9000   -4.5949    0.0000 O   0  0  0  0  0  0  0  0  0  0  0  0
   -3.8381   -3.6387    0.0000 O   0  0  0  0  0  0  0  0  0  0  0  0
   -1.9792    4.7911    0.0000 O   0  0  0  0  0  0  0  0  0  0  0  0
    0.3131   -2.0259    0.0000 O   0  0  0  0  0  0  0  0  0  0  0  0
    2.3948    2.0686    0.0000 O   0  0  0  0  0  0  0  0  0  0  0  0
    0.9936    4.6925    0.0000 O   0  0  0  0  0  0  0  0  0  0  0  0
    2.1820   -0.8982    0.0000 O   0  0  0  0  0  0  0  0  0  0  0  0
   -2.4469    1.0395    0.0000 O   0  0  0  0  0  0  0  0  0  0  0  0
   -1.9371    1.3825    0.0000 O   0  0  0  0  0  0  0  0  0  0  0  0
   -4.3158   -0.0881    0.0000 O   0  0  0  0  0  0  0  0  0  0  0  0
   -3.2539    0.8679    0.0000 O   0  0  0  0  0  0  0  0  0  0  0  0
   -0.2388   -1.4128    0.0000 S   0  0  0  0  0  0  0  0  0  0  0  0
   -0.7908   -0.7997    0.0000 S   0  0  0  0  0  0  0  0  0  0  0  0
  4  3  2  0
  5  3  1  0
  7  6  2  0
  9  8  1  0
 10  4  1  0
 11  5  2  0
 12  6  1  0
 13  7  1  0
 14  8  1  0
 17 15  2  0
 18 16  1  0
 19  9  1  0
 22 20  1  0
 23 21  1  0
 26 24  1  0
 27 25  1  0
 38  1  1  6
 39  2  1  1
 40 10  2  0
 40 11  1  0
 40 28  1  0
 41 15  1  0
 41 16  2  0
 41 29  1  0
 42 30  1  0
 42 31  2  0
 43 17  1  0
 43 18  2  0
 44 12  2  0
 44 42  1  0
 45 13  2  0
 45 44  1  0
 46 14  1  6
 47 28  1  1
 48 29  1  1
 49 30  1  1
 50 36  1  0
 51 37  1  0
 52 32  1  0
 53 33  1  0
 54 34  1  0
 55 35  1  0
 38 56  1  0
 39 57  1  0
 46 58  1  0
 47 59  1  0
 48 60  1  0
 49 61  1  0
 50 62  1  0
 51 63  1  1
 56 64  1  0
 57 65  1  0
 66 19  1  0
 67 31  1  0
 67 45  1  0
 47 68  1  0
 68 52  2  3
 46 69  1  0
 69 61  2  0
 48 70  1  0
 70 62  2  0
 49 71  1  0
 71 60  2  0
 50 72  1  6
 72 59  2  3
 51 73  1  0
 73 64  2  0
 56 74  1  6
 74 58  2  0
 57 75  1  1
 75 63  2  3
 76 20  1  0
 76 21  1  0
 76 32  1  0
 77 22  1  0
 77 24  1  0
 77 33  1  0
 78 23  1  0
 78 25  1  0
 78 34  1  0
 79 26  1  0
 79 27  1  0
 79 35  1  0
 38 80  1  0
 39 81  1  0
 82 43  1  0
 52 83  1  0
 84 53  2  0
 85 53  1  0
 86 54  2  0
 87 54  1  0
 88 55  2  0
 89 55  1  0
 58 90  1  0
 59 91  1  0
 60 92  1  0
 61 93  1  0
 62 94  1  0
 63 95  1  0
 64 96  1  0
 97 65  2  0
 98 65  1  0
 99 36  1  0
100 37  1  0
100 99  1  0
M  CHG  3  82  -1  83  -1  85  -1
M  END
$$$$
