
     RDKit          2D

 35 39  0  0  0  0  0  0  0  0999 V2000
    0.2768   -0.8757    0.0000 N   0  0  0  0  0  0  0  0  0  0  0  0
   -0.6825   -0.8757    0.0000 C   0  0  0  0  0  0  0  0  0  0  0  0
   -0.6825   -0.0644    0.0000 C   0  0  0  0  0  0  0  0  0  0  0  0
    0.2768   -0.0500    0.0000 C   0  0  0  0  0  0  0  0  0  0  0  0
    1.7040   -0.8757    0.0000 C   0  0  0  0  0  0  0  0  0  0  0  0
    0.9879   -1.3101    0.0000 C   0  0  0  0  0  0  0  0  0  0  0  0
   -3.5320   -0.0739    0.0000 C   0  0  0  0  0  0  0  0  0  0  0  0
    2.9688   -0.8757    0.0000 N   0  0  0  0  0  0  0  0  0  0  0  0
   -2.8160    0.3556    0.0000 C   0  0  0  0  0  0  0  0  0  0  0  0
   -3.8327   -0.8233    0.0000 N   0  0  0  0  0  0  0  0  0  0  0  0
   -1.4127    0.3556    0.0000 N   0  0  0  0  0  0  0  0  0  0  0  0
   -2.1287   -0.0739    0.0000 C   0  0  0  0  0  0  0  0  0  0  0  0
    0.9879    0.3127    0.0000 S   0  0  0  0  0  0  0  0  0  0  0  0
   -4.6251   -0.8233    0.0000 C   0  0  0  0  0  0  0  0  0  0  0  0
    2.3531   -1.2386    0.0000 C   0  0  0  0  0  0  0  0  0  0  0  0
    0.9784   -2.0356    0.0000 C   0  0  0  0  0  0  0  0  0  0  0  0
   -4.2193    0.4129    0.0000 C   0  0  0  0  0  0  0  0  0  0  0  0
   -4.8923   -0.0644    0.0000 S   0  0  0  0  0  0  0  0  0  0  0  0
    3.7945   -1.2815    0.0000 C   0  0  0  0  0  0  0  0  0  0  0  0
    1.7040   -0.0739    0.0000 C   0  0  0  0  0  0  0  0  0  0  0  0
   -2.8160    1.1241    0.0000 N   0  0  0  0  0  0  0  0  0  0  0  0
   -1.1979   -1.3244    0.0000 O   0  0  0  0  0  0  0  0  0  0  0  0
   -2.1287   -0.7182    0.0000 O   0  0  0  0  0  0  0  0  0  0  0  0
    1.7040   -2.4271    0.0000 O   0  0  0  0  0  0  0  0  0  0  0  0
    0.3341   -2.4557    0.0000 O   0  0  0  0  0  0  0  0  0  0  0  0
    4.4867   -0.8757    0.0000 C   0  0  0  0  0  0  0  0  0  0  0  0
   -5.1406   -1.3532    0.0000 N   0  0  0  0  0  0  0  0  0  0  0  0
    2.9688   -0.0500    0.0000 C   0  0  0  0  0  0  0  0  0  0  0  0
   -2.1192    1.5154    0.0000 O   0  0  0  0  0  0  0  0  0  0  0  0
    4.0380   -2.1120    0.0000 C   0  0  0  0  0  0  0  0  0  0  0  0
    3.7707    0.3270    0.0000 C   0  0  0  0  0  0  0  0  0  0  0  0
    4.9258   -2.1120    0.0000 C   0  0  0  0  0  0  0  0  0  0  0  0
    4.4867   -0.0500    0.0000 C   0  0  0  0  0  0  0  0  0  0  0  0
    5.1406   -1.2815    0.0000 C   0  0  0  0  0  0  0  0  0  0  0  0
   -2.1192    2.4557    0.0000 C   0  0  0  0  0  0  0  0  0  0  0  0
  2  1  1  0
  3  4  1  0
  4  1  1  0
  5  6  2  0
  6  1  1  0
  7  9  1  0
  8 15  1  0
  9 12  1  0
 10  7  1  0
  3 11  1  1
 12 11  1  0
  4 13  1  1
 14 10  2  0
 15  5  1  0
 16  6  1  0
 17  7  2  0
 18 17  1  0
 19  8  1  0
 20 13  1  0
 21  9  2  0
 22  2  2  0
 23 12  2  0
 24 16  1  0
 25 16  2  0
 26 19  2  0
 27 14  1  0
 28  8  2  0
 29 21  1  0
 30 19  1  0
 31 28  1  0
 32 30  1  0
 33 31  2  0
 34 26  1  0
 35 29  1  0
  2  3  1  0
 20  5  1  0
 26 33  1  0
 34 32  1  0
 18 14  1  0
M  CHG  2   8   1  24  -1
M  END
$$$$
