
     RDKit          2D

 33 35  0  0  0  0  0  0  0  0999 V2000
    1.9710   -2.6179    0.0000 C   0  0  0  0  0  0  0  0  0  0  0  0
    2.6917   -2.2098    0.0000 C   0  0  0  0  0  0  0  0  0  0  0  0
    3.4037   -1.7930    0.0000 O   0  0  0  0  0  0  0  0  0  0  0  0
    3.0998   -2.9217    0.0000 C   0  0  0  0  0  0  0  0  0  0  0  0
    2.2749   -1.4891    0.0000 C   0  0  0  0  0  0  0  0  0  0  0  0
    1.4500   -1.4891    0.0000 N   0  0  0  0  0  0  0  0  0  0  0  0
    1.0332   -0.7771    0.0000 C   0  0  0  0  0  0  0  0  0  0  0  0
    1.4500   -0.0564    0.0000 N   0  0  0  0  0  0  0  0  0  0  0  0
    1.0332    0.6555    0.0000 C   0  0  0  0  0  0  0  0  0  0  0  0
    1.4500    1.3762    0.0000 C   0  0  0  0  0  0  0  0  0  0  0  0
    2.2749    1.3762    0.0000 N   0  0  0  0  0  0  0  0  0  0  0  0
    2.6917    2.0882    0.0000 C   0  0  0  0  0  0  0  0  0  0  0  0
    3.5165    2.0882    0.0000 C   0  0  0  0  0  0  0  0  0  0  0  0
    3.5165    1.2633    0.0000 F   0  0  0  0  0  0  0  0  0  0  0  0
    3.5165    2.9217    0.0000 F   0  0  0  0  0  0  0  0  0  0  0  0
    4.3414    2.0882    0.0000 F   0  0  0  0  0  0  0  0  0  0  0  0
    2.2749    2.8089    0.0000 C   0  0  0  0  0  0  0  0  0  0  0  0
    1.4500    2.8089    0.0000 C   0  0  0  0  0  0  0  0  0  0  0  0
    1.0332    2.0882    0.0000 C   0  0  0  0  0  0  0  0  0  0  0  0
    0.2083    0.6555    0.0000 N   0  0  0  0  0  0  0  0  0  0  0  0
   -0.2083   -0.0564    0.0000 C   0  0  0  0  0  0  0  0  0  0  0  0
   -1.0332   -0.0564    0.0000 N   0  0  0  0  0  0  0  0  0  0  0  0
   -1.4500   -0.7771    0.0000 C   0  0  0  0  0  0  0  0  0  0  0  0
   -2.2748   -0.7771    0.0000 C   0  0  0  0  0  0  0  0  0  0  0  0
   -2.6916   -1.4891    0.0000 C   0  0  0  0  0  0  0  0  0  0  0  0
   -3.5165   -1.4891    0.0000 C   0  0  0  0  0  0  0  0  0  0  0  0
   -3.5165   -0.6642    0.0000 F   0  0  0  0  0  0  0  0  0  0  0  0
   -3.5165   -2.3140    0.0000 F   0  0  0  0  0  0  0  0  0  0  0  0
   -4.3414   -1.4891    0.0000 F   0  0  0  0  0  0  0  0  0  0  0  0
   -2.2748   -2.2098    0.0000 N   0  0  0  0  0  0  0  0  0  0  0  0
   -1.4500   -2.2098    0.0000 C   0  0  0  0  0  0  0  0  0  0  0  0
   -1.0332   -1.4891    0.0000 C   0  0  0  0  0  0  0  0  0  0  0  0
    0.2083   -0.7771    0.0000 N   0  0  0  0  0  0  0  0  0  0  0  0
  1  2  1  0
  2  3  1  0
  2  4  1  0
  2  5  1  0
  5  6  1  0
  6  7  1  0
  7  8  2  0
  7 33  1  0
  8  9  1  0
  9 10  1  0
  9 20  2  0
 10 11  2  0
 10 19  1  0
 11 12  1  0
 12 13  1  0
 12 17  2  0
 13 14  1  0
 13 15  1  0
 13 16  1  0
 17 18  1  0
 18 19  2  0
 20 21  1  0
 21 22  1  0
 21 33  2  0
 22 23  1  0
 23 24  2  0
 23 32  1  0
 24 25  1  0
 25 26  1  0
 25 30  2  0
 26 27  1  0
 26 28  1  0
 26 29  1  0
 30 31  1  0
 31 32  2  0
M  END
$$$$
