
     RDKit          2D

 34 35  0  0  0  0  0  0  0  0999 V2000
   -4.2869   -1.6500    0.0000 C   0  0  0  0  0  0  0  0  0  0  0  0
   -4.2869   -0.8249    0.0000 C   0  0  0  0  0  0  0  0  0  0  0  0
   -2.1435   -0.4124    0.0000 C   0  0  0  0  0  0  0  0  0  0  0  0
   -2.8580   -0.8249    0.0000 C   0  0  0  0  0  0  0  0  0  0  0  0
   -3.5724   -0.4124    0.0000 C   0  0  0  0  0  0  0  0  0  0  0  0
   -5.0014   -0.4124    0.0000 C   0  0  0  0  0  0  0  0  0  0  0  0
   -5.7158   -0.8249    0.0000 O   0  0  0  0  0  0  0  0  0  0  0  0
   -5.0014    0.4124    0.0000 C   0  0  0  0  0  0  0  0  0  0  0  0
   -5.7158    0.8249    0.0000 C   0  0  0  0  0  0  0  0  0  0  0  0
   -4.2869    0.8249    0.0000 C   0  0  0  0  0  0  0  0  0  0  0  0
   -4.2869    1.6500    0.0000 C   0  0  0  0  0  0  0  0  0  0  0  0
   -3.5724    0.4124    0.0000 C   0  0  0  0  0  0  0  0  0  0  0  0
   -2.8580    0.8249    0.0000 O   0  0  0  0  0  0  0  0  0  0  0  0
    6.4303   -0.4124    0.0000 C   0  0  0  0  0  0  0  0  0  0  0  0
    6.4303    0.4124    0.0000 C   0  0  0  0  0  0  0  0  0  0  0  0
    7.1447    0.8249    0.0000 C   0  0  0  0  0  0  0  0  0  0  0  0
    5.7158    0.8249    0.0000 C   0  0  0  0  0  0  0  0  0  0  0  0
    5.0013    0.4124    0.0000 C   0  0  0  0  0  0  0  0  0  0  0  0
    4.2868    0.8249    0.0000 C   0  0  0  0  0  0  0  0  0  0  0  0
    3.5723    0.4124    0.0000 C   0  0  0  0  0  0  0  0  0  0  0  0
    3.5723   -0.4124    0.0000 C   0  0  0  0  0  0  0  0  0  0  0  0
    2.8579    0.8249    0.0000 C   0  0  0  0  0  0  0  0  0  0  0  0
    2.1433    0.4124    0.0000 C   0  0  0  0  0  0  0  0  0  0  0  0
    1.4289    0.8249    0.0000 C   0  0  0  0  0  0  0  0  0  0  0  0
    0.7144    0.4124    0.0000 C   0  0  0  0  0  0  0  0  0  0  0  0
    0.7144   -0.4124    0.0000 C   0  0  0  0  0  0  0  0  0  0  0  0
    0.0000    0.8249    0.0000 C   0  0  0  0  0  0  0  0  0  0  0  0
   -0.7144    0.4124    0.0000 C   0  0  0  0  0  0  0  0  0  0  0  0
   -1.4290    0.8249    0.0000 C   0  0  0  0  0  0  0  0  0  0  0  0
   -2.1435    0.4124    0.0000 C   0  0  0  0  0  0  0  0  0  0  0  0
   -1.4290    0.0000    0.0000 C   0  0  0  0  0  0  0  0  0  0  0  0
   -6.4302   -0.4124    0.0000 C   0  0  0  0  0  0  0  0  0  0  0  0
   -7.1447   -0.8249    0.0000 C   0  0  0  0  0  0  0  0  0  0  0  0
   -6.4302    0.4124    0.0000 O   0  0  0  0  0  0  0  0  0  0  0  0
  2  1  1  0
 30 29  1  0
 30  3  1  0
  3  4  1  0
  5  2  2  0
  4  5  1  0
  2  6  1  0
  6  7  1  0
  8  6  2  0
  8  9  1  0
 10  8  1  0
 10 11  1  0
 12 10  2  0
 12  5  1  0
 30 13  1  0
 12 13  1  0
 14 15  1  0
 15 16  1  0
 15 17  1  0
 17 18  1  0
 18 19  1  0
 19 20  1  0
 20 21  1  1
 20 22  1  0
 22 23  1  0
 23 24  1  0
 24 25  1  0
 25 26  1  1
 25 27  1  0
 27 28  1  0
 28 29  1  0
 30 31  1  1
  7 32  1  0
 32 33  1  0
 32 34  2  0
M  END
$$$$
