
     RDKit          2D

 20 19  0  0  0  0  0  0  0  0999 V2000
   -3.2152   -1.0314    0.0000 C   0  0  0  0  0  0  0  0  0  0  0  0
   -2.5007   -1.4439    0.0000 C   0  0  0  0  0  0  0  0  0  0  0  0
    2.5007   -1.0314    0.0000 C   0  0  0  0  0  0  0  0  0  0  0  0
    1.7862   -1.4439    0.0000 C   0  0  0  0  0  0  0  0  0  0  0  0
    1.0717   -1.0314    0.0000 C   0  0  0  0  0  0  0  0  0  0  0  0
    0.3572   -1.4439    0.0000 C   0  0  0  0  0  0  0  0  0  0  0  0
   -0.3572   -1.0314    0.0000 C   0  0  0  0  0  0  0  0  0  0  0  0
   -1.0717   -1.4439    0.0000 C   0  0  0  0  0  0  0  0  0  0  0  0
   -1.7861   -1.0314    0.0000 C   0  0  0  0  0  0  0  0  0  0  0  0
    2.5007   -0.2063    0.0000 O   0  0  0  0  0  0  0  0  0  0  0  0
    3.2152   -1.4439    0.0000 O   0  0  0  0  0  0  0  0  0  0  0  0
   -3.2152   -0.2063    0.0000 C   0  0  0  0  0  0  0  0  0  0  0  0
   -2.5008    0.2061    0.0000 C   0  0  0  0  0  0  0  0  0  0  0  0
   -2.5008    1.0312    0.0000 C   0  0  0  0  0  0  0  0  0  0  0  0
   -1.7863    1.4437    0.0000 C   0  0  0  0  0  0  0  0  0  0  0  0
   -1.0718    1.0312    0.0000 C   0  0  0  0  0  0  0  0  0  0  0  0
   -0.3573    1.4437    0.0000 C   0  0  0  0  0  0  0  0  0  0  0  0
    0.3571    1.0313    0.0000 C   0  0  0  0  0  0  0  0  0  0  0  0
    1.0716    1.4438    0.0000 C   0  0  0  0  0  0  0  0  0  0  0  0
    1.7861    1.0313    0.0000 C   0  0  0  0  0  0  0  0  0  0  0  0
 12  1  2  0
  2  1  1  0
  3 10  2  0
  3 11  1  0
  3  4  1  0
  4  5  1  0
  5  6  1  0
  6  7  1  0
  7  8  1  0
  9  2  1  0
  8  9  1  0
 13 12  1  0
 14 13  1  0
 15 14  2  0
 16 15  1  0
 17 16  1  0
 18 17  1  0
 19 18  1  0
 20 19  1  0
M  END
$$$$
