
     RDKit          2D

 25 27  0  0  0  0  0  0  0  0999 V2000
   -1.0407   -2.0703    0.0000 S   0  0  0  0  0  0  0  0  0  0  0  0
   -1.0407    0.4042    0.0000 O   0  0  0  0  0  0  0  0  0  0  0  0
    1.1110   -3.3443    0.0000 O   0  0  0  0  0  0  0  0  0  0  0  0
    1.8111    2.0989    0.0000 N   0  0  0  0  0  0  0  0  0  0  0  0
    0.4015    0.4327    0.0000 N   0  0  0  0  0  0  0  0  0  0  0  0
    1.1016    1.6783    0.0000 C   0  0  0  0  0  0  0  0  0  0  0  0
    1.1110    0.8534    0.0000 C   0  0  0  0  0  0  0  0  0  0  0  0
    0.4110   -0.3920    0.0000 C   0  0  0  0  0  0  0  0  0  0  0  0
   -0.3262   -0.8330    0.0000 C   0  0  0  0  0  0  0  0  0  0  0  0
   -0.3262   -1.6579    0.0000 C   0  0  0  0  0  0  0  0  0  0  0  0
    1.8016    2.9237    0.0000 C   0  0  0  0  0  0  0  0  0  0  0  0
    2.5302    1.6948    0.0000 C   0  0  0  0  0  0  0  0  0  0  0  0
    0.4110   -2.0989    0.0000 C   0  0  0  0  0  0  0  0  0  0  0  0
   -1.0407   -0.4205    0.0000 C   0  0  0  0  0  0  0  0  0  0  0  0
    1.1584   -0.8158    0.0000 C   0  0  0  0  0  0  0  0  0  0  0  0
   -1.7551   -0.8330    0.0000 C   0  0  0  0  0  0  0  0  0  0  0  0
    1.1584   -1.6750    0.0000 C   0  0  0  0  0  0  0  0  0  0  0  0
   -1.7551   -1.6579    0.0000 C   0  0  0  0  0  0  0  0  0  0  0  0
    2.5111    3.3443    0.0000 C   0  0  0  0  0  0  0  0  0  0  0  0
    3.2397    2.1154    0.0000 C   0  0  0  0  0  0  0  0  0  0  0  0
    0.4015   -2.9237    0.0000 C   0  0  0  0  0  0  0  0  0  0  0  0
   -2.4924   -0.3920    0.0000 C   0  0  0  0  0  0  0  0  0  0  0  0
   -2.4924   -2.0989    0.0000 C   0  0  0  0  0  0  0  0  0  0  0  0
   -3.2398   -0.8158    0.0000 C   0  0  0  0  0  0  0  0  0  0  0  0
   -3.2398   -1.6750    0.0000 C   0  0  0  0  0  0  0  0  0  0  0  0
  1 10  1  0
  1 18  1  0
  2 14  2  0
  3 21  1  0
  4  6  1  0
  4 11  1  0
  4 12  1  0
  5  7  1  0
  5  8  1  0
  6  7  1  0
  8  9  1  0
  8 15  2  0
  9 10  2  0
  9 14  1  0
 10 13  1  0
 11 19  1  0
 12 20  1  0
 13 17  2  0
 13 21  1  0
 14 16  1  0
 15 17  1  0
 16 18  2  0
 16 22  1  0
 18 23  1  0
 22 24  2  0
 23 25  2  0
 24 25  1  0
M  END
$$$$
