
     RDKit          2D

 47 50  0  0  0  0  0  0  0  0999 V2000
   -1.1825   -1.4039    0.0000 C   0  0  0  0  0  0  0  0  0  0  0  0
    2.3897    1.4835    0.0000 C   0  0  0  0  0  0  0  0  0  0  0  0
    1.5647    0.6585    0.0000 C   0  0  0  0  0  0  0  0  0  0  0  0
    1.6752   -1.4039    0.0000 C   0  0  0  0  0  0  0  0  0  0  0  0
   -2.8937    2.6712    0.0000 C   0  0  0  0  0  0  0  0  0  0  0  0
    0.2463   -3.0539    0.0000 C   0  0  0  0  0  0  0  0  0  0  0  0
    0.9608   -2.6414    0.0000 C   0  0  0  0  0  0  0  0  0  0  0  0
   -0.4681   -2.6414    0.0000 C   0  0  0  0  0  0  0  0  0  0  0  0
    0.9608   -1.8164    0.0000 C   0  0  0  0  0  0  0  0  0  0  0  0
   -1.1825    1.8960    0.0000 C   0  0  0  0  0  0  0  0  0  0  0  0
   -1.8970    0.6585    0.0000 C   0  0  0  0  0  0  0  0  0  0  0  0
   -1.8970    2.3085    0.0000 C   0  0  0  0  0  0  0  0  0  0  0  0
   -2.6115    1.0710    0.0000 C   0  0  0  0  0  0  0  0  0  0  0  0
    3.6272    1.3730    0.0000 C   0  0  0  0  0  0  0  0  0  0  0  0
    3.6272   -0.0559    0.0000 C   0  0  0  0  0  0  0  0  0  0  0  0
    4.8647    0.6585    0.0000 C   0  0  0  0  0  0  0  0  0  0  0  0
   -0.4681   -0.1664    0.0000 C   0  0  0  0  0  0  0  0  0  0  0  0
    0.9608    0.6585    0.0000 C   0  0  0  0  0  0  0  0  0  0  0  0
   -3.4240    1.7527    0.0000 C   0  0  0  0  0  0  0  0  0  0  0  0
   -0.4681   -1.8164    0.0000 C   0  0  0  0  0  0  0  0  0  0  0  0
    3.2147    0.6585    0.0000 C   0  0  0  0  0  0  0  0  0  0  0  0
    4.4522    1.3730    0.0000 C   0  0  0  0  0  0  0  0  0  0  0  0
    4.4522   -0.0559    0.0000 C   0  0  0  0  0  0  0  0  0  0  0  0
    0.2463   -1.4039    0.0000 C   0  0  0  0  0  0  0  0  0  0  0  0
    0.2463   -0.5789    0.0000 C   0  0  0  0  0  0  0  0  0  0  0  0
    0.9608   -0.1664    0.0000 C   0  0  0  0  0  0  0  0  0  0  0  0
   -0.4681    0.6585    0.0000 C   0  0  0  0  0  0  0  0  0  0  0  0
    2.3897   -0.1664    0.0000 C   0  0  0  0  0  0  0  0  0  0  0  0
    2.3897    0.6585    0.0000 C   0  0  0  0  0  0  0  0  0  0  0  0
    4.8647    2.0874    0.0000 C   0  0  0  0  0  0  0  0  0  0  0  0
    4.8647   -0.7704    0.0000 C   0  0  0  0  0  0  0  0  0  0  0  0
    5.2772    2.8019    0.0000 F   0  0  0  0  0  0  0  0  0  0  0  0
    4.1502    2.4999    0.0000 F   0  0  0  0  0  0  0  0  0  0  0  0
    5.5792    1.6749    0.0000 F   0  0  0  0  0  0  0  0  0  0  0  0
    5.2772   -1.4848    0.0000 F   0  0  0  0  0  0  0  0  0  0  0  0
    5.5792   -0.3579    0.0000 F   0  0  0  0  0  0  0  0  0  0  0  0
    4.1502   -1.1829    0.0000 F   0  0  0  0  0  0  0  0  0  0  0  0
    0.2463    1.0710    0.0000 N   0  0  0  0  0  0  0  0  0  0  0  0
    1.6752   -0.5789    0.0000 N   0  0  0  0  0  0  0  0  0  0  0  0
   -1.1825    1.0710    0.0000 N   0  0  0  0  0  0  0  0  0  0  0  0
   -2.6115    1.8960    0.0000 N   0  0  0  0  0  0  0  0  0  0  0  0
    3.1042   -0.5789    0.0000 O   0  0  0  0  0  0  0  0  0  0  0  0
   -5.5792    2.0982    0.0000 O   0  0  0  0  0  0  0  0  0  0  0  0
   -4.9100    3.0539    0.0000 O   0  0  0  0  0  0  0  0  0  0  0  0
   -4.6235    1.4290    0.0000 O   0  0  0  0  0  0  0  0  0  0  0  0
   -3.9543    2.3847    0.0000 O   0  0  0  0  0  0  0  0  0  0  0  0
   -4.7667    2.2415    0.0000 P   0  0  0  0  0  0  0  0  0  0  0  0
  7  6  2  0
  8  6  1  0
  9  7  1  0
 12 10  1  0
 13 11  1  0
 20  1  1  0
 20  8  2  0
 21 14  2  0
 21 15  1  0
 22 14  1  0
 22 16  2  0
 23 15  2  0
 23 16  1  0
 24  9  2  0
 24 20  1  0
 25 17  2  0
 25 24  1  0
 26 18  2  0
 26 25  1  0
 27 17  1  0
 29  2  1  0
 29  3  1  0
 29 21  1  0
 29 28  1  0
 30 22  1  0
 31 23  1  0
 32 30  1  0
 33 30  1  0
 34 30  1  0
 35 31  1  0
 36 31  1  0
 37 31  1  0
 38 18  1  0
 38 27  2  0
 39  4  1  0
 39 26  1  0
 39 28  1  0
 40 10  1  0
 40 11  1  0
 40 27  1  0
 41  5  1  0
 41 12  1  0
 41 13  1  0
 41 19  1  0
 42 28  2  0
 46 19  1  0
 47 43  1  0
 47 44  1  0
 47 45  2  0
 47 46  1  0
M  CHG  2  41   1  44  -1
M  END
$$$$
