
     RDKit          2D

  7  6  0  0  0  0  0  0  0  0999 V2000
    1.2964   -0.2041    0.0000 C   0  0  0  0  0  0  0  0  0  0  0  0
    0.4714   -0.2041    0.0000 N   0  0  0  0  0  0  0  0  0  0  0  0
    0.4714    0.6209    0.0000 C   0  0  0  0  0  0  0  0  0  0  0  0
    0.4714   -1.0291    0.0000 C   0  0  0  0  0  0  0  0  0  0  0  0
   -0.3536   -0.2041    0.0000 C   0  0  0  0  0  0  0  0  0  0  0  0
   -0.7661    0.5103    0.0000 C   0  0  0  0  0  0  0  0  0  0  0  0
   -1.5911    0.5103    0.0000 O   0  0  0  0  0  0  0  0  0  0  0  0
  1  2  1  0
  2  3  1  0
  2  4  1  0
  2  5  1  0
  5  6  1  0
  6  7  1  0
M  CHG  1   2   1
M  END
$$$$
