
     RDKit          2D

 45 48  0  0  0  0  0  0  0  0999 V2000
   -3.6289   -0.3767    0.0000 C   0  0  0  0  0  0  0  0  0  0  0  0
   -4.3603   -0.7827    0.0000 C   0  0  0  0  0  0  0  0  0  0  0  0
   -4.3810   -1.6075    0.0000 C   0  0  0  0  0  0  0  0  0  0  0  0
   -2.9180   -0.7955    0.0000 C   0  0  0  0  0  0  0  0  0  0  0  0
   -2.9183   -1.6568    0.0000 C   0  0  0  0  0  0  0  0  0  0  0  0
   -3.6499   -2.0628    0.0000 C   0  0  0  0  0  0  0  0  0  0  0  0
   -2.9963   -3.3266    0.0000 C   0  0  0  0  0  0  0  0  0  0  0  0
   -2.2647   -2.9206    0.0000 C   0  0  0  0  0  0  0  0  0  0  0  0
   -2.2075   -2.0755    0.0000 N   0  0  0  0  0  0  0  0  0  0  0  0
   -1.5336   -3.3759    0.0000 O   0  0  0  0  0  0  0  0  0  0  0  0
   -3.6083    0.4479    0.0000 O   0  0  0  0  0  0  0  0  0  0  0  0
   -2.8553    0.8661    0.0000 C   0  0  0  0  0  0  0  0  0  0  0  0
   -2.1442    0.4479    0.0000 C   0  0  0  0  0  0  0  0  0  0  0  0
   -1.4332    0.8661    0.0000 C   0  0  0  0  0  0  0  0  0  0  0  0
   -0.6803    0.4479    0.0000 C   0  0  0  0  0  0  0  0  0  0  0  0
    0.0726    0.8661    0.0000 N   0  0  0  0  0  0  0  0  0  0  0  0
    0.7419    0.4479    0.0000 C   0  0  0  0  0  0  0  0  0  0  0  0
    1.4947    0.8661    0.0000 C   0  0  0  0  0  0  0  0  0  0  0  0
    1.4947    1.7027    0.0000 N   0  0  0  0  0  0  0  0  0  0  0  0
    0.7419    2.1210    0.0000 C   0  0  0  0  0  0  0  0  0  0  0  0
    0.0726    1.7027    0.0000 C   0  0  0  0  0  0  0  0  0  0  0  0
    2.2058    2.1210    0.0000 C   0  0  0  0  0  0  0  0  0  0  0  0
    2.9168    1.7027    0.0000 C   0  0  0  0  0  0  0  0  0  0  0  0
    3.6698    2.1210    0.0000 C   0  0  0  0  0  0  0  0  0  0  0  0
    3.6698    2.9577    0.0000 C   0  0  0  0  0  0  0  0  0  0  0  0
    2.9168    3.3759    0.0000 C   0  0  0  0  0  0  0  0  0  0  0  0
    2.2058    2.9577    0.0000 C   0  0  0  0  0  0  0  0  0  0  0  0
    2.9168    0.8661    0.0000 Cl  0  0  0  0  0  0  0  0  0  0  0  0
    4.3810    1.7027    0.0000 Cl  0  0  0  0  0  0  0  0  0  0  0  0
   -3.6705   -2.8875    0.0000 C   0  0  0  0  0  0  0  0  0  0  0  0
   -1.4778   -1.6905    0.0000 C   0  0  0  0  0  0  0  0  0  0  0  0
   -0.7797   -2.1300    0.0000 O   0  0  0  0  0  0  0  0  0  0  0  0
    2.0771   -2.1105    0.0000 C   0  0  0  0  0  0  0  0  0  0  0  0
    2.0771   -2.9355    0.0000 C   0  0  0  0  0  0  0  0  0  0  0  0
    2.7915   -1.6981    0.0000 C   0  0  0  0  0  0  0  0  0  0  0  0
    2.7915   -3.3480    0.0000 C   0  0  0  0  0  0  0  0  0  0  0  0
    3.5061   -2.1105    0.0000 C   0  0  0  0  0  0  0  0  0  0  0  0
    3.5061   -2.9355    0.0000 C   0  0  0  0  0  0  0  0  0  0  0  0
    0.6482   -2.1105    0.0000 C   0  0  0  0  0  0  0  0  0  0  0  0
    0.6482   -2.9355    0.0000 C   0  0  0  0  0  0  0  0  0  0  0  0
    1.3627   -1.6981    0.0000 C   0  0  0  0  0  0  0  0  0  0  0  0
    1.3627   -3.3480    0.0000 C   0  0  0  0  0  0  0  0  0  0  0  0
   -0.0708   -1.7080    0.0000 C   0  0  0  0  0  0  0  0  0  0  0  0
   -0.0819   -0.8832    0.0000 O   0  0  0  0  0  0  0  0  0  0  0  0
   -0.0661   -3.3480    0.0000 C   0  0  0  0  0  0  0  0  0  0  0  0
  5  4  2  0
 14 15  1  0
  5  6  1  0
 15 16  1  0
 30  7  1  0
  7  8  1  0
  8  9  1  0
  9  5  1  0
  4  1  1  0
 16 17  1  0
 17 18  1  0
 18 19  1  0
 19 20  1  0
 20 21  1  0
 21 16  1  0
  8 10  2  0
 19 22  1  0
  1 11  1  0
  1  2  2  0
 11 12  1  0
  2  3  1  0
 22 23  2  0
 23 24  1  0
 24 25  2  0
 25 26  1  0
 26 27  2  0
 27 22  1  0
 12 13  1  0
 23 28  1  0
  3  6  2  0
 24 29  1  0
 13 14  1  0
  6 30  1  0
  9 31  1  0
 31 32  1  0
 35 33  1  0
 36 34  1  0
 37 35  1  0
 38 36  1  0
 38 37  1  0
 41 39  1  0
 42 40  1  0
 33 41  1  0
 34 42  1  0
 39 43  1  0
 43 32  1  0
 43 44  2  0
 40 45  1  0
M  END
$$$$
