
     RDKit          2D

  4  3  0  0  0  0  0  0  0  0999 V2000
   -2.2654    0.0000    0.0000 O   0  0  0  0  0  0  0  0  0  0  0  0
   -1.4396    0.0000    0.0000 Si  0  0  0  0  0  4  0  0  0  0  0  0
   -1.0266   -0.7142    0.0000 O   0  0  0  0  0  0  0  0  0  0  0  0
   -1.0266    0.7142    0.0000 O   0  0  0  0  0  0  0  0  0  0  0  0
  1  2  1  0
  2  3  2  0
  2  4  1  0
M  CHG  2   1  -1   4  -1
M  END
$$$$
