
     RDKit          2D

 19 21  0  0  0  0  0  0  0  0999 V2000
    0.1659   -0.4951    0.0000 C   0  0  0  0  0  0  0  0  0  0  0  0
    1.4710   -0.1459    0.0000 N   0  0  0  0  0  0  0  0  0  0  0  0
    0.6639   -0.0085    0.0000 C   0  0  0  0  0  0  0  0  0  0  0  0
    0.6811   -1.8346    0.0000 N   0  0  0  0  0  0  0  0  0  0  0  0
    0.1602   -1.3307    0.0000 C   0  0  0  0  0  0  0  0  0  0  0  0
    1.4882   -1.6914    0.0000 C   0  0  0  0  0  0  0  0  0  0  0  0
   -0.5552   -0.0944    0.0000 C   0  0  0  0  0  0  0  0  0  0  0  0
    1.8488   -0.9015    0.0000 C   0  0  0  0  0  0  0  0  0  0  0  0
    0.4178    0.7756    0.0000 C   0  0  0  0  0  0  0  0  0  0  0  0
   -0.5552   -1.7429    0.0000 C   0  0  0  0  0  0  0  0  0  0  0  0
    1.9862   -2.3439    0.0000 O   0  0  0  0  0  0  0  0  0  0  0  0
   -1.2650   -0.5066    0.0000 C   0  0  0  0  0  0  0  0  0  0  0  0
   -1.2650   -1.3307    0.0000 C   0  0  0  0  0  0  0  0  0  0  0  0
   -1.9862   -0.0944    0.0000 Cl  0  0  0  0  0  0  0  0  0  0  0  0
    0.9730    1.3823    0.0000 C   0  0  0  0  0  0  0  0  0  0  0  0
   -0.3891    0.9530    0.0000 C   0  0  0  0  0  0  0  0  0  0  0  0
   -0.6410    1.7430    0.0000 C   0  0  0  0  0  0  0  0  0  0  0  0
    0.7326    2.1664    0.0000 C   0  0  0  0  0  0  0  0  0  0  0  0
   -0.0743    2.3439    0.0000 C   0  0  0  0  0  0  0  0  0  0  0  0
  2  3  2  0
  3  1  1  0
  4  5  1  0
  5  1  2  0
  6  4  1  0
  7  1  1  0
  8  2  1  0
  9  3  1  0
 10  5  1  0
 11  6  2  0
 12  7  2  0
 13 12  1  0
 14 12  1  0
 15  9  2  0
 16  9  1  0
 17 16  2  0
 18 15  1  0
 19 17  1  0
 10 13  2  0
  8  6  1  0
 18 19  2  0
M  END
$$$$
