
     RDKit          2D

 19 19  0  0  0  0  0  0  0  0999 V2000
    2.0212   -0.2978    0.0000 O   0  0  0  0  0  0  0  0  0  0  0  0
   -0.3207   -1.9984    0.0000 O   0  0  0  0  0  0  0  0  0  0  0  0
   -0.1420    1.9984    0.0000 O   0  0  0  0  0  0  0  0  0  0  0  0
   -1.4941   -0.8432    0.0000 O   0  0  0  0  0  0  0  0  0  0  0  0
    2.2917   -1.9205    0.0000 O   0  0  0  0  0  0  0  0  0  0  0  0
    1.2878    1.9984    0.0000 O   0  0  0  0  0  0  0  0  0  0  0  0
   -2.2917    0.7562    0.0000 O   0  0  0  0  0  0  0  0  0  0  0  0
   -0.0962   -0.5453    0.0000 N   0  0  0  0  0  0  0  0  0  0  0  0
    0.9809   -1.3337    0.0000 N   0  0  0  0  0  0  0  0  0  0  0  0
    0.5729    0.7562    0.0000 N   0  0  0  0  0  0  0  0  0  0  0  0
   -0.8616    0.7562    0.0000 N   0  0  0  0  0  0  0  0  0  0  0  0
    0.5729   -0.0687    0.0000 C   0  0  0  0  0  0  0  0  0  0  0  0
    1.2375   -0.5453    0.0000 C   0  0  0  0  0  0  0  0  0  0  0  0
    0.1558   -1.3337    0.0000 C   0  0  0  0  0  0  0  0  0  0  0  0
   -0.1420    1.1733    0.0000 C   0  0  0  0  0  0  0  0  0  0  0  0
   -0.8800   -0.2978    0.0000 C   0  0  0  0  0  0  0  0  0  0  0  0
    1.4666   -1.9984    0.0000 C   0  0  0  0  0  0  0  0  0  0  0  0
    1.2878    1.1733    0.0000 C   0  0  0  0  0  0  0  0  0  0  0  0
   -1.5766    1.1733    0.0000 C   0  0  0  0  0  0  0  0  0  0  0  0
  1 13  2  0
  2 14  2  0
  3 15  2  0
  4 16  1  0
  5 17  1  0
  6 18  1  0
  7 19  1  0
  8 12  1  0
  8 14  1  0
  8 16  1  0
  9 13  1  0
  9 14  1  0
  9 17  1  0
 10 12  1  0
 10 15  1  0
 10 18  1  0
 11 15  1  0
 11 19  1  0
 12 13  1  0
M  END
$$$$
