
     RDKit          2D

 38 39  0  0  1  0  0  0  0  0999 V2000
    7.1843   -5.3678    0.0000 C   0  0  0  0  0  0  0  0  0  0  0  0
    7.8987   -6.6053    0.0000 C   0  0  0  0  0  0  0  0  0  0  0  0
   10.7566   -6.6053    0.0000 C   0  0  0  0  0  0  0  0  0  0  0  0
   13.6145   -6.6053    0.0000 C   0  0  0  0  0  0  0  0  0  0  0  0
   18.9438   -3.1680    0.0000 C   0  0  0  0  0  0  0  0  0  0  0  0
   17.3189   -3.4545    0.0000 C   0  0  0  0  0  0  0  0  0  0  0  0
   19.4401   -5.9825    0.0000 C   0  0  0  0  0  0  0  0  0  0  0  0
   15.9421   -6.4123    0.0000 C   0  0  0  0  0  0  0  0  0  0  0  0
    9.3277   -5.7803    0.0000 C   0  0  0  0  0  0  0  0  0  0  0  0
   12.1856   -5.7803    0.0000 C   0  0  0  0  0  0  0  0  0  0  0  0
   15.0435   -5.7803    0.0000 C   0  0  0  0  0  0  0  0  0  0  0  0
    8.6132   -5.3678    0.0000 C   0  0  0  0  0  0  0  0  0  0  0  0
   10.0422   -5.3678    0.0000 C   0  0  0  0  0  0  0  0  0  0  0  0
   11.4711   -5.3678    0.0000 C   0  0  0  0  0  0  0  0  0  0  0  0
   12.9000   -5.3678    0.0000 C   0  0  0  0  0  0  0  0  0  0  0  0
   14.3290   -5.3678    0.0000 C   0  0  0  0  0  0  0  0  0  0  0  0
   21.3812   -2.7382    0.0000 C   0  0  0  0  0  0  0  0  0  0  0  0
   21.0991   -3.5135    0.0000 C   0  0  0  0  0  0  0  0  0  0  0  0
   17.8152   -6.2690    0.0000 C   0  0  0  0  0  0  0  0  0  0  0  0
   15.7579   -5.3678    0.0000 C   0  0  0  0  0  0  0  0  0  0  0  0
   17.0027   -6.4123    0.0000 C   0  0  0  0  0  0  0  0  0  0  0  0
    7.8987   -5.7803    0.0000 C   0  0  0  0  0  0  0  0  0  0  0  0
   10.7566   -5.7803    0.0000 C   0  0  0  0  0  0  0  0  0  0  0  0
   13.6145   -5.7803    0.0000 C   0  0  0  0  0  0  0  0  0  0  0  0
   18.6617   -3.9433    0.0000 C   0  0  0  0  0  0  0  0  0  0  0  0
   17.8492   -4.0865    0.0000 C   0  0  0  0  0  0  0  0  0  0  0  0
   18.9098   -5.3505    0.0000 C   0  0  0  0  0  0  0  0  0  0  0  0
   18.0973   -5.4938    0.0000 C   0  0  0  0  0  0  0  0  0  0  0  0
   22.1937   -2.5950    0.0000 C   0  0  0  0  0  0  0  0  0  0  0  0
   20.2866   -3.6567    0.0000 C   0  0  0  0  0  0  0  0  0  0  0  0
   19.1920   -4.5753    0.0000 C   0  0  0  0  0  0  0  0  0  0  0  0
   17.5670   -4.8618    0.0000 C   0  0  0  0  0  0  0  0  0  0  0  0
   16.4724   -5.7803    0.0000 C   0  0  0  0  0  0  0  0  0  0  0  0
   22.4759   -1.8197    0.0000 O   0  0  0  0  0  0  0  0  0  0  0  0
   22.7240   -3.2270    0.0000 O   0  0  0  0  0  0  0  0  0  0  0  0
   19.7563   -3.0248    0.0000 O   0  0  0  0  0  0  0  0  0  0  0  0
   20.0044   -4.4320    0.0000 O   0  0  0  0  0  0  0  0  0  0  0  0
   16.7546   -5.0050    0.0000 O   0  0  0  0  0  0  0  0  0  0  0  0
 12  9  1  0
 13  9  1  0
 14 10  1  0
 15 10  1  0
 16 11  1  0
 18 17  1  0
 20 11  1  0
 21 19  1  0
 22  1  1  0
 22  2  1  0
 22 12  1  0
 23  3  1  6
 23 13  1  0
 23 14  1  0
 24  4  1  6
 24 15  1  0
 24 16  1  0
 25  5  1  0
 26  6  1  0
 26 25  1  0
 27  7  1  0
 28 19  1  0
 28 27  2  0
 29 17  1  0
 30 18  1  0
 31 25  2  0
 31 27  1  0
 32 26  2  0
 32 28  1  0
 33  8  1  6
 33 20  1  0
 33 21  1  0
 34 29  2  0
 35 29  1  0
 36 30  2  0
 37 30  1  0
 37 31  1  0
 38 32  1  0
 38 33  1  0
M  END
$$$$
