
     RDKit          2D

 11 12  0  0  0  0  0  0  0  0999 V2000
   -0.5952   -0.4125    0.0000 C   0  0  0  0  0  0  0  0  0  0  0  0
   -0.1190   -1.2374    0.0000 C   0  0  0  0  0  0  0  0  0  0  0  0
   -0.1190    0.4125    0.0000 C   0  0  0  0  0  0  0  0  0  0  0  0
   -0.1190    1.2374    0.0000 C   0  0  0  0  0  0  0  0  0  0  0  0
    0.5953    0.0000    0.0000 C   0  0  0  0  0  0  0  0  0  0  0  0
    1.3097    0.4125    0.0000 O   0  0  0  0  0  0  0  0  0  0  0  0
    0.5953   -0.8250    0.0000 C   0  0  0  0  0  0  0  0  0  0  0  0
   -1.3097   -0.8250    0.0000 C   0  0  0  0  0  0  0  0  0  0  0  0
   -1.3097    0.0000    0.0000 C   0  0  0  0  0  0  0  0  0  0  0  0
   -0.8334   -0.8250    0.0000 C   0  0  0  0  0  0  0  0  0  0  0  0
   -0.8335    0.0000    0.0000 C   0  0  0  0  0  0  0  0  0  0  0  0
  2  1  1  0
  3  1  1  0
  2 10  1  0
  2  7  1  0
 10 11  1  0
 11  3  1  0
  3  4  1  0
  3  5  1  0
  5  6  2  0
  5  7  1  0
  8  1  1  0
  9  1  1  0
M  END
$$$$
