
     RDKit          2D

 25 25  0  0  0  0  0  0  0  0999 V2000
   -2.8822   -0.0115    0.0000 S   0  0  0  0  0  0  0  0  0  0  0  0
   -3.5941    1.2515    0.0000 O   0  0  0  0  0  0  0  0  0  0  0  0
   -1.4468   -0.8382    0.0000 O   0  0  0  0  0  0  0  0  0  0  0  0
    0.7235    1.2515    0.0000 O   0  0  0  0  0  0  0  0  0  0  0  0
    2.8708   -0.8382    0.0000 O   0  0  0  0  0  0  0  0  0  0  0  0
    5.0295    1.2515    0.0000 O   0  0  0  0  0  0  0  0  0  0  0  0
    5.7415   -0.0115    0.0000 O   0  0  0  0  0  0  0  0  0  0  0  0
   -0.7234    0.4018    0.0000 N   0  0  0  0  0  0  0  0  0  0  0  0
    1.4353   -0.0115    0.0000 N   0  0  0  0  0  0  0  0  0  0  0  0
    3.5942    0.4018    0.0000 N   0  0  0  0  0  0  0  0  0  0  0  0
   -4.3176   -0.0115    0.0000 C   0  0  0  0  0  0  0  0  0  0  0  0
   -3.5941    0.4018    0.0000 C   0  0  0  0  0  0  0  0  0  0  0  0
   -1.4468   -0.0115    0.0000 C   0  0  0  0  0  0  0  0  0  0  0  0
   -5.0295    0.4018    0.0000 C   0  0  0  0  0  0  0  0  0  0  0  0
   -4.3176   -0.8382    0.0000 C   0  0  0  0  0  0  0  0  0  0  0  0
   -2.1588    0.4018    0.0000 C   0  0  0  0  0  0  0  0  0  0  0  0
    0.7235    0.4018    0.0000 C   0  0  0  0  0  0  0  0  0  0  0  0
   -0.0114   -0.0115    0.0000 C   0  0  0  0  0  0  0  0  0  0  0  0
    2.8708   -0.0115    0.0000 C   0  0  0  0  0  0  0  0  0  0  0  0
    2.1588    0.4018    0.0000 C   0  0  0  0  0  0  0  0  0  0  0  0
   -5.7415   -0.0115    0.0000 C   0  0  0  0  0  0  0  0  0  0  0  0
   -5.0295   -1.2515    0.0000 C   0  0  0  0  0  0  0  0  0  0  0  0
   -5.7415   -0.8382    0.0000 C   0  0  0  0  0  0  0  0  0  0  0  0
    4.3061   -0.0115    0.0000 C   0  0  0  0  0  0  0  0  0  0  0  0
    5.0295    0.4018    0.0000 C   0  0  0  0  0  0  0  0  0  0  0  0
  1 12  1  0
  1 16  1  0
  2 12  2  0
  3 13  2  0
  4 17  2  0
  5 19  2  0
  6 25  2  0
  7 25  1  0
  8 13  1  0
  8 18  1  0
  9 17  1  0
  9 20  1  0
 10 19  1  0
 10 24  1  0
 11 12  1  0
 11 14  2  0
 11 15  1  0
 13 16  1  0
 14 21  1  0
 15 22  2  0
 17 18  1  0
 19 20  1  0
 21 23  2  0
 22 23  1  0
 24 25  1  0
M  END
$$$$
