
     RDKit          2D

 21 23  0  0  0  0  0  0  0  0999 V2000
   -0.3604    0.2187    0.0000 O   0  0  0  0  0  0  0  0  0  0  0  0
   -1.0729   -0.2020    0.0000 C   0  0  0  0  0  0  0  0  0  0  0  0
   -1.0812   -1.0270    0.0000 C   0  0  0  0  0  0  0  0  0  0  0  0
    0.3562   -0.2020    0.0000 C   0  0  0  0  0  0  0  0  0  0  0  0
   -0.3604   -1.4437    0.0000 C   0  0  0  0  0  0  0  0  0  0  0  0
   -1.7936   -1.4437    0.0000 C   0  0  0  0  0  0  0  0  0  0  0  0
    1.0687    0.2062    0.0000 C   0  0  0  0  0  0  0  0  0  0  0  0
    0.3562   -1.0312    0.0000 C   0  0  0  0  0  0  0  0  0  0  0  0
   -1.7936    0.2104    0.0000 C   0  0  0  0  0  0  0  0  0  0  0  0
   -2.5062   -1.0312    0.0000 C   0  0  0  0  0  0  0  0  0  0  0  0
    1.0687    1.0312    0.0000 C   0  0  0  0  0  0  0  0  0  0  0  0
    1.7812    1.4437    0.0000 C   0  0  0  0  0  0  0  0  0  0  0  0
   -2.5062   -0.2020    0.0000 C   0  0  0  0  0  0  0  0  0  0  0  0
    2.5020    1.0312    0.0000 C   0  0  0  0  0  0  0  0  0  0  0  0
    1.7812   -0.2062    0.0000 C   0  0  0  0  0  0  0  0  0  0  0  0
    2.4936    0.1979    0.0000 C   0  0  0  0  0  0  0  0  0  0  0  0
   -1.7853   -2.2687    0.0000 O   0  0  0  0  0  0  0  0  0  0  0  0
    1.0687   -1.4437    0.0000 O   0  0  0  0  0  0  0  0  0  0  0  0
    1.7812    2.2687    0.0000 O   0  0  0  0  0  0  0  0  0  0  0  0
    3.2186    1.4354    0.0000 O   0  0  0  0  0  0  0  0  0  0  0  0
   -3.2186    0.2062    0.0000 O   0  0  0  0  0  0  0  0  0  0  0  0
  2  1  1  0
  3  2  2  0
  4  1  1  0
  5  8  1  0
  6  3  1  0
  4  7  1  6
  8  4  1  0
  9  2  1  0
 10 13  1  0
 11  7  2  0
 12 11  1  0
 13  9  2  0
 14 16  1  0
 15  7  1  0
 16 15  2  0
 17  6  1  0
  8 18  1  1
 19 12  1  0
 20 14  1  0
 21 13  1  0
  3  5  1  0
 10  6  2  0
 12 14  2  0
M  END
$$$$
