
     RDKit          2D

 21 22  0  0  0  0  0  0  0  0999 V2000
    1.2486   -0.2235    0.0000 C   0  0  0  0  0  0  0  0  0  0  0  0
   -0.1797   -0.2332    0.0000 S   0  0  0  0  0  0  0  0  0  0  0  0
    0.5344    0.1845    0.0000 N   0  0  0  0  0  0  0  0  0  0  0  0
    1.5013   -1.0105    0.0000 C   0  0  0  0  0  0  0  0  0  0  0  0
    1.9141    0.2623    0.0000 O   0  0  0  0  0  0  0  0  0  0  0  0
    2.5846   -0.2235    0.0000 N   0  0  0  0  0  0  0  0  0  0  0  0
    2.3271   -1.0105    0.0000 C   0  0  0  0  0  0  0  0  0  0  0  0
    0.5295    1.0105    0.0000 C   0  0  0  0  0  0  0  0  0  0  0  0
   -0.8988    0.1797    0.0000 C   0  0  0  0  0  0  0  0  0  0  0  0
   -0.5975   -0.9474    0.0000 O   0  0  0  0  0  0  0  0  0  0  0  0
    0.2283   -0.9474    0.0000 O   0  0  0  0  0  0  0  0  0  0  0  0
    1.2437    1.4234    0.0000 O   0  0  0  0  0  0  0  0  0  0  0  0
   -1.6130   -0.2332    0.0000 C   0  0  0  0  0  0  0  0  0  0  0  0
   -0.8988    1.0105    0.0000 C   0  0  0  0  0  0  0  0  0  0  0  0
    0.7821   -1.4138    0.0000 C   0  0  0  0  0  0  0  0  0  0  0  0
   -2.3271    1.0105    0.0000 C   0  0  0  0  0  0  0  0  0  0  0  0
   -3.0413    1.4234    0.0000 N   0  0  0  0  0  0  0  0  0  0  0  0
   -2.3271    0.1797    0.0000 C   0  0  0  0  0  0  0  0  0  0  0  0
   -1.6130    1.4234    0.0000 C   0  0  0  0  0  0  0  0  0  0  0  0
   -0.1845    1.4186    0.0000 C   0  0  0  0  0  0  0  0  0  0  0  0
    3.0413   -1.4234    0.0000 C   0  0  0  0  0  0  0  0  0  0  0  0
  2  3  1  0
  3  1  1  0
  4  1  2  0
  5  1  1  0
  6  5  1  0
  7  4  1  0
  8  3  1  0
  9  2  1  0
 10  2  2  0
 11  2  2  0
 12  8  2  0
 13  9  2  0
 14  9  1  0
 15  4  1  0
 16 19  1  0
 17 16  1  0
 18 13  1  0
 19 14  2  0
 20  8  1  0
 21  7  1  0
  6  7  2  0
 18 16  2  0
M  END
$$$$
