
     RDKit          2D

 23 24  0  0  0  0  0  0  0  0999 V2000
    1.1785    1.5623    0.0000 C   0  0  0  0  0  0  0  0  0  0  0  0
    5.4653   -0.9126    0.0000 C   0  0  0  0  0  0  0  0  0  0  0  0
    6.1798   -2.1501    0.0000 C   0  0  0  0  0  0  0  0  0  0  0  0
    9.0377    0.3248    0.0000 C   0  0  0  0  0  0  0  0  0  0  0  0
    1.8930    1.1498    0.0000 C   0  0  0  0  0  0  0  0  0  0  0  0
    2.6075    1.5623    0.0000 C   0  0  0  0  0  0  0  0  0  0  0  0
    3.3219    1.1498    0.0000 C   0  0  0  0  0  0  0  0  0  0  0  0
    4.0364    1.5623    0.0000 C   0  0  0  0  0  0  0  0  0  0  0  0
    8.3232   -0.9126    0.0000 C   0  0  0  0  0  0  0  0  0  0  0  0
    7.6088   -1.3251    0.0000 C   0  0  0  0  0  0  0  0  0  0  0  0
    7.6088    0.3248    0.0000 C   0  0  0  0  0  0  0  0  0  0  0  0
    5.4653    1.5623    0.0000 C   0  0  0  0  0  0  0  0  0  0  0  0
    4.7509    0.3248    0.0000 C   0  0  0  0  0  0  0  0  0  0  0  0
    6.1798   -1.3251    0.0000 C   0  0  0  0  0  0  0  0  0  0  0  0
    8.3232   -0.0876    0.0000 C   0  0  0  0  0  0  0  0  0  0  0  0
    4.7509    1.1498    0.0000 C   0  0  0  0  0  0  0  0  0  0  0  0
    6.8943   -0.9126    0.0000 C   0  0  0  0  0  0  0  0  0  0  0  0
    6.8943   -0.0876    0.0000 C   0  0  0  0  0  0  0  0  0  0  0  0
    6.1798    1.1498    0.0000 C   0  0  0  0  0  0  0  0  0  0  0  0
    5.4653   -0.0876    0.0000 C   0  0  0  0  0  0  0  0  0  0  0  0
    6.1798    0.3248    0.0000 C   0  0  0  0  0  0  0  0  0  0  0  0
    6.8943    1.5623    0.0000 O   0  0  0  0  0  0  0  0  0  0  0  0
    4.9804   -0.7550    0.0000 O   0  0  0  0  0  0  0  0  0  0  0  0
  5  1  1  0
  6  5  1  0
  7  6  1  0
  8  7  1  0
 10  9  1  0
 14  2  2  3
 14  3  1  0
 15  4  1  0
 15  9  1  0
 15 11  2  0
 16  8  1  0
 16 12  2  0
 16 13  1  0
 17 10  1  0
 17 14  1  1
 18 11  1  0
 17 18  1  0
 19 12  1  0
 20 13  2  0
 18 21  1  6
 21 19  2  0
 21 20  1  0
 22 19  1  0
 23 20  1  0
M  END
$$$$
