
     RDKit          2D

  7  6  0  0  0  0  0  0  0  0999 V2000
    2.1560    0.4190    0.0000 Zr  0  0  0  0  0  6  0  0  0  0  0  0
    2.5685    1.1335    0.0000 O   0  0  0  0  0  0  0  0  0  0  0  0
    1.7435    1.1335    0.0000 O   0  0  0  0  0  0  0  0  0  0  0  0
    1.3310    0.4190    0.0000 O   0  0  0  0  0  0  0  0  0  0  0  0
    2.9810    0.4190    0.0000 O   0  0  0  0  0  0  0  0  0  0  0  0
    1.6551   -0.3704    0.0000 O   0  0  0  0  0  0  0  0  0  0  0  0
    2.5685   -0.2953    0.0000 O   0  0  0  0  0  0  0  0  0  0  0  0
  1  2  1  0
  1  3  1  0
  1  4  1  0
  1  5  1  0
  1  6  1  0
  1  7  1  0
M  CHG  2   3  -1   7  -1
M  END
$$$$
