
     RDKit          2D

  4  3  0  0  0  0  0  0  0  0999 V2000
   -0.7145    0.6187    0.0000 O   0  0  0  0  0  0  0  0  0  0  0  0
   -0.7145   -0.2062    0.0000 S   0  0  0  0  0  0  0  0  0  0  0  0
    0.0000   -0.6187    0.0000 O   0  0  0  0  0  0  0  0  0  0  0  0
   -1.4290   -0.6187    0.0000 O   0  0  0  0  0  0  0  0  0  0  0  0
  2  1  2  0
  2  3  1  0
  2  4  1  0
M  CHG  1   3  -1
M  END
$$$$
